@<TRIPOS>MOLECULE
4BO_901_3CHP
   41    42     0     0     0
SMALL
USER_CHARGES

@<TRIPOS>ATOM
      1 C1          9.7550   36.3580   73.1020 C.ar      1 <0>        -0.0617
      2 C2          9.1820   35.3790   72.2830 C.ar      1 <0>        -0.0614
      3 C3          9.6110   37.7180   72.7740 C.ar      1 <0>        -0.0614
      4 C4          8.4650   35.7530   71.1370 C.ar      1 <0>        -0.0564
      5 C5          8.8950   38.0960   71.6280 C.ar      1 <0>        -0.0564
      6 C6          8.5610   41.8670   67.9200 C.ar      1 <0>        -0.0380
      7 C7          9.7270   39.9390   67.0250 C.ar      1 <0>        -0.0380
      8 C8          7.7440   41.0110   68.6820 C.ar      1 <0>        -0.0299
      9 C9          8.9110   39.0850   67.7760 C.ar      1 <0>        -0.0299
     10 C10         7.6350   37.4540   69.6320 C.3       1 <0>         0.0792
     11 C11        13.8510   42.8740   65.4020 C.3       1 <0>         0.0385
     12 C12         8.3210   37.1100   70.8020 C.ar      1 <0>        -0.0214
     13 C13         9.5650   41.3400   67.0890 C.ar      1 <0>         0.0337
     14 C14         7.9130   39.6150   68.6160 C.ar      1 <0>         0.0767
     15 C15        12.3260   42.9900   65.1620 C.3       1 <0>         0.0586
     16 C16        14.5240   41.7760   64.5420 C.2       1 <0>         0.0476
     17 C17        11.5360   41.8270   65.7910 C.2       1 <0>         0.2657
     18 N1         11.8390   44.2520   65.6990 N.4       1 <0>         0.2276
     19 N2         10.4280   42.1990   66.4790 N.am      1 <0>        -0.2809
     20 O1         15.7320   41.5240   64.7880 O.co2     1 <0>        -0.5496
     21 O2         13.8240   41.2220   63.6590 O.co2     1 <0>        -0.5496
     22 O3         11.9510   40.6720   65.6950 O.2       1 <0>        -0.2693
     23 O4          7.1020   38.7970   69.3860 O.3       1 <0>        -0.3401
     24 H1         10.3069   36.0698   73.9845 H         1 <0>         0.0618
     25 H2          9.2919   34.3342   72.5335 H         1 <0>         0.0618
     26 H3         10.0529   38.4739   73.4062 H         1 <0>         0.0618
     27 H4          8.0215   34.9944   70.5091 H         1 <0>         0.0621
     28 H5          8.7842   39.1412   71.3797 H         1 <0>         0.0621
     29 H6          8.4157   42.9358   67.9740 H         1 <0>         0.0637
     30 H7         10.4915   39.5202   66.3874 H         1 <0>         0.0637
     31 H8          6.9812   41.4285   69.3225 H         1 <0>         0.0644
     32 H9          9.0474   38.0156   67.7109 H         1 <0>         0.0644
     33 H10         8.3491   37.2729   68.8151 H         1 <0>         0.0615
     34 H11         6.7608   36.7870   69.6035 H         1 <0>         0.0615
     35 H12        14.3133   43.8398   65.1501 H         1 <0>         0.0385
     36 H13        14.0148   42.6294   66.4619 H         1 <0>         0.0385
     37 H14        12.1656   42.9467   64.0746 H         1 <0>         0.0952
     38 H15        10.8540   44.3235   65.5423 H         1 <0>         0.2002
     39 H16        12.0237   44.2896   66.6811 H         1 <0>         0.2002
     40 H17        12.3049   45.0102   65.2427 H         1 <0>         0.2002
     41 H18        10.2299   43.1771   66.5432 H         1 <0>         0.1550
@<TRIPOS>BOND
     1    1    2 ar
     2    1    3 ar
     3    2    4 ar
     4    3    5 ar
     5    4   12 ar
     6    5   12 ar
     7    6    8 ar
     8    6   13 ar
     9    7    9 ar
    10    7   13 ar
    11    8   14 ar
    12    9   14 ar
    13   10   12 1
    14   10   23 1
    15   11   15 1
    16   11   16 1
    17   13   19 1
    18   14   23 1
    19   15   17 1
    20   15   18 1
    21   16   20 1
    22   16   21 2
    23   17   19 am
    24   17   22 2
    25    1   24 1
    26    2   25 1
    27    3   26 1
    28    4   27 1
    29    5   28 1
    30    6   29 1
    31    7   30 1
    32    8   31 1
    33    9   32 1
    34   10   33 1
    35   10   34 1
    36   11   35 1
    37   11   36 1
    38   15   37 1
    39   18   38 1
    40   18   39 1
    41   18   40 1
    42   19   41 1
