4ok6_ligand

Created by X-TOOL on Fri Nov 18 17:57:20 2016
 40 42  0  0  0  0  0  0  0  0999 V2000
  -19.6760  -29.7790   26.4920  O 0  0  0  1  0  1
  -18.6300  -29.8240   27.1210  N 0  0  0  1  0  3
  -17.8400  -28.8790   27.0610  O 0  0  0  1  0  1
  -18.3370  -31.0240   27.9540  C 0  0  0  1  0  3
  -17.1650  -31.7470   27.7850  C 0  0  0  2  0  3
  -16.8980  -32.8570   28.5750  C 0  0  0  2  0  3
  -17.8240  -33.2260   29.5440  C 0  0  0  1  0  3
  -17.6010  -34.2990   30.3500  O 0  0  0  1  0  2
  -16.2320  -34.6410   30.5700  C 0  0  0  4  0  4
  -19.2480  -31.3990   28.9280  C 0  0  0  2  0  3
  -18.9860  -32.4960   29.7180  C 0  0  0  1  0  3
  -19.9560  -32.9460   30.7730  C 0  0  0  3  0  4
  -19.5060  -32.5230   32.1000  N 0  0  0  1  0  3
  -19.9320  -33.1150   33.2570  C 0  0  0  1  0  3
  -20.7820  -34.1790   33.5180  C 0  0  0  2  0  3
  -21.0110  -34.5630   34.8220  C 0  0  0  2  0  3
  -19.3090  -32.4410   34.3230  C 0  0  0  1  0  3
  -19.5500  -32.8450   35.6360  C 0  0  0  2  0  3
  -20.3890  -33.8970   35.8710  C 0  0  0  2  0  3
  -18.4800  -31.3950   33.7210  C 0  0  0  1  0  3
  -18.6470  -31.4870   32.3870  C 0  0  0  2  0  3
  -17.6360  -30.4040   34.4810  C 0  0  0  3  0  4
  -16.8320  -31.1060   35.5480  C 0  5  0  1  0  3
  -16.8630  -30.6270   36.8000  O 0  0  0  1  0  1
  -16.1850  -32.1010   35.2710  O 0  0  0  1  0  1
  -16.4507  -31.4422   27.0287  H 0  0  0  1  0  1
  -15.9849  -33.4251   28.4388  H 0  0  0  1  0  1
  -16.1749  -35.5176   31.2320  H 0  0  0  1  0  1
  -15.7130  -33.7925   31.0396  H 0  0  0  1  0  1
  -15.7537  -34.8764   29.6078  H 0  0  0  1  0  1
  -20.1615  -30.8323   29.0674  H 0  0  0  1  0  1
  -20.0323  -34.0431   30.7498  H 0  0  0  1  0  1
  -20.9429  -32.5054   30.5684  H 0  0  0  1  0  1
  -21.2634  -34.7055   32.7018  H 0  0  0  1  0  1
  -21.6805  -35.3897   35.0304  H 0  0  0  1  0  1
  -19.0757  -32.3287   36.4627  H 0  0  0  1  0  1
  -20.5722  -34.2169   36.8904  H 0  0  0  1  0  1
  -18.1745  -30.8404   31.6490  H 0  0  0  1  0  1
  -18.2911  -29.6573   34.9535  H 0  0  0  1  0  1
  -16.9506  -29.9012   33.7829  H 0  0  0  1  0  1
  1  2  2  0  0  2
  2  3  2  0  0  2
  2  4  1  0  0  2
  4  5  4  0  0  1
  4 10  4  0  0  1
  5  6  4  0  0  1
  6  7  4  0  0  1
  7  8  1  0  0  2
  7 11  4  0  0  1
  8  9  1  0  0  2
 10 11  4  0  0  1
 11 12  1  0  0  2
 12 13  1  0  0  2
 13 14  1  0  0  1
 13 21  1  0  0  1
 14 15  4  0  0  1
 14 17  4  0  0  1
 15 16  4  0  0  1
 16 19  4  0  0  1
 17 18  4  0  0  1
 17 20  1  0  0  1
 18 19  4  0  0  1
 20 21  2  0  0  1
 20 22  1  0  0  2
 22 23  1  0  0  2
 23 24  2  0  0  2
 23 25  2  0  0  2
  5 26  1  0  0  2
  6 27  1  0  0  2
  9 28  1  0  0  2
  9 29  1  0  0  2
  9 30  1  0  0  2
 10 31  1  0  0  2
 12 32  1  0  0  2
 12 33  1  0  0  2
 15 34  1  0  0  2
 16 35  1  0  0  2
 18 36  1  0  0  2
 19 37  1  0  0  2
 21 38  1  0  0  2
 22 39  1  0  0  2
 22 40  1  0  0  2
M  END
> <MOLECULAR_FORMULA>
C18H15N2O5

> <MOLECULAR_WEIGHT>
339.2

> <NUM_HB_ATOMS>
6  

> <NUM_ROTOR>
4  

> <XLOGP2>
2.43 

$$$$
