REMARK  9 active torsions:
REMARK  status: ('A' for Active; 'I' for Inactive)
REMARK    1  A    between atoms: C02_2518  and  N03_2542 
REMARK    2  A    between atoms: C02_2518  and  C18_2530 
REMARK       I    between atoms: C04_2519  and  N03_2542 
REMARK    3  A    between atoms: C04_2519  and  C05_2543 
REMARK    4  A    between atoms: C10_2524  and  N11_2544 
REMARK    5  A    between atoms: C12_2525  and  N11_2544 
REMARK    6  A    between atoms: C22_2534  and  C23_2535 
REMARK    7  A    between atoms: C26_2538  and  C27_2539 
REMARK    8  A    between atoms: C27_2539  and  N28_2546 
REMARK    9  A    between atoms: C29_2540  and  N28_2546 
ROOT
HETATM    1  C18 Y97 A 403       2.771  12.719  34.474  1.00 49.25    -0.000 A 
HETATM    2  C19 Y97 A 403       4.150  12.626  34.256  1.00 48.92    -0.002 A 
HETATM    3  C20 Y97 A 403       5.035  13.448  34.977  1.00 50.28    -0.000 A 
HETATM    4  C21 Y97 A 403       4.529  14.350  35.946  1.00 50.65     0.001 A 
HETATM    5  C22 Y97 A 403       3.126  14.466  36.228  1.00 50.31     0.006 A 
HETATM    6  C35 Y97 A 403       2.290  13.616  35.463  1.00 47.65    -0.002 A 
ENDROOT
BRANCH   1   7
HETATM    7  C02 Y97 A 403       1.792  11.758  33.677  1.00 51.11     0.129 C 
HETATM    8  C01 Y97 A 403       1.832  12.044  32.128  1.00 50.37     0.031 C 
BRANCH   7   9
HETATM    9  N03 Y97 A 403       2.159  10.340  34.001  1.00 51.66    -0.232 NA
HETATM   10  C04 Y97 A 403       2.005   9.713  35.267  1.00 50.88     0.275 C 
HETATM   11  O17 Y97 A 403       1.453  10.400  36.154  1.00 47.36    -0.266 OA
BRANCH  10  12
HETATM   12  C05 Y97 A 403       2.411   8.207  35.634  1.00 51.25     0.055 A 
HETATM   13  C06 Y97 A 403       1.467   7.180  35.505  1.00 50.48    -0.017 A 
HETATM   14  C07 Y97 A 403       0.014   7.482  35.006  1.00 48.66     0.031 C 
HETATM   15  C08 Y97 A 403       1.888   5.854  35.845  1.00 53.42    -0.003 A 
HETATM   16  C09 Y97 A 403       3.205   5.545  36.293  1.00 55.45     0.018 A 
HETATM   17  C10 Y97 A 403       4.182   6.559  36.440  1.00 57.25     0.076 A 
HETATM   18  C16 Y97 A 403       3.736   7.886  36.088  1.00 53.80     0.023 A 
BRANCH  17  19
HETATM   19  N11 Y97 A 403       5.577   6.257  36.897  1.00 61.07    -0.268 NA
BRANCH  19  20
HETATM   20  C12 Y97 A 403       6.725   6.078  36.000  1.00 68.47     0.175 C 
HETATM   21  C13 Y97 A 403       7.372   7.398  35.340  1.00 71.30     0.316 C 
HETATM   22  N14 Y97 A 403       8.778   6.990  35.798  1.00 75.07     0.343 N 
HETATM   23  C15 Y97 A 403       8.168   5.855  36.644  1.00 73.82     0.316 C 
ENDBRANCH  19  20
ENDBRANCH  17  19
ENDBRANCH  10  12
ENDBRANCH   7   9
ENDBRANCH   1   7
BRANCH   5  24
HETATM   24  C23 Y97 A 403       2.525  15.443  37.315  1.00 54.77     0.029 A 
HETATM   25  C24 Y97 A 403       3.004  16.143  38.416  1.00 58.36     0.007 A 
HETATM   26  C25 Y97 A 403       1.980  16.964  39.180  1.00 65.42     0.005 A 
HETATM   27  C26 Y97 A 403       0.701  16.865  38.662  1.00 73.18     0.031 A 
HETATM   28  S34 Y97 A 403       0.765  15.771  37.251  1.00 57.73    -0.089 SA
BRANCH  27  29
HETATM   29  C27 Y97 A 403      -0.705  17.466  38.982  1.00 84.35     0.153 C 
BRANCH  29  30
HETATM   30  N28 Y97 A 403      -1.574  17.681  37.690  1.00102.21    -0.289 NA
BRANCH  30  31
HETATM   31  C29 Y97 A 403      -1.089  18.620  36.524  1.00107.55     0.131 C 
HETATM   32  C33 Y97 A 403      -2.104  18.712  35.291  1.00107.00     0.166 C 
HETATM   33  O32 Y97 A 403      -2.044  20.080  34.815  1.00106.36    -0.352 OA
HETATM   34  C31 Y97 A 403      -1.327  20.888  35.683  1.00105.80     0.144 C 
HETATM   35  C30 Y97 A 403      -0.974  20.118  36.960  1.00106.41     0.059 C 
ENDBRANCH  30  31
ENDBRANCH  29  30
ENDBRANCH  27  29
ENDBRANCH   5  24
TORSDOF 9
