REMARK  8 active torsions:
REMARK  status: ('A' for Active; 'I' for Inactive)
REMARK    1  A    between atoms: C23_2371  and  C24_2370 
REMARK    2  A    between atoms: C23_2371  and  N1_2378 
REMARK    3  A    between atoms: C23_2371  and  C25_2372 
REMARK    4  A    between atoms: C25_2372  and  C26_2373 
REMARK    5  A    between atoms: C22_2379  and  N1_2378 
REMARK    6  A    between atoms: C21_2380  and  C22_2379 
REMARK       I    between atoms: C_2390  and  N_2389 
REMARK    7  A    between atoms: C_2390  and  C1_2392 
REMARK    8  A    between atoms: C4_2395  and  C5_2398 
ROOT
HETATM    1  C21 3X5 A 401     -24.761 -42.594   3.529  1.00 20.00     0.120 C 
HETATM    2  C20 3X5 A 401     -24.873 -42.989   5.000  1.00 20.00     0.025 C 
HETATM    3  C19 3X5 A 401     -24.754 -41.777   5.913  1.00 20.00     0.004 C 
HETATM    4  C18 3X5 A 401     -24.951 -42.189   7.366  1.00 20.00     0.000 C 
HETATM    5  C17 3X5 A 401     -24.858 -40.977   8.286  1.00 20.00     0.000 C 
HETATM    6  C16 3X5 A 401     -25.846 -39.891   7.875  1.00 20.00     0.000 C 
HETATM    7  C15 3X5 A 401     -25.664 -39.499   6.412  1.00 20.00     0.002 C 
HETATM    8  C14 3X5 A 401     -25.773 -40.723   5.512  1.00 20.00     0.022 C 
HETATM    9  C13 3X5 A 401     -25.564 -40.327   4.057  1.00 20.00     0.104 C 
HETATM   10  N   3X5 A 401     -25.764 -41.553   3.290  1.00 20.00    -0.316 N 
HETATM   11  C   3X5 A 401     -26.752 -41.776   2.427  1.00 20.00     0.257 C 
HETATM   12  O   3X5 A 401     -27.149 -42.903   2.182  1.00 20.00    -0.267 OA
ENDROOT
BRANCH  11  13
HETATM   13  C1  3X5 A 401     -27.391 -40.605   1.741  1.00 20.00     0.056 A 
HETATM   14  C2  3X5 A 401     -27.085 -40.325   0.414  1.00 20.00     0.005 A 
HETATM   15  C3  3X5 A 401     -27.677 -39.241  -0.222  1.00 20.00     0.000 A 
HETATM   16  C4  3X5 A 401     -28.575 -38.435   0.469  1.00 20.00     0.000 A 
HETATM   17  C11 3X5 A 401     -28.881 -38.715   1.796  1.00 20.00     0.000 A 
HETATM   18  C12 3X5 A 401     -28.289 -39.800   2.432  1.00 20.00     0.005 A 
BRANCH  16  19
HETATM   19  C5  3X5 A 401     -29.208 -37.275  -0.211  1.00 20.00     0.000 A 
HETATM   20  C10 3X5 A 401     -29.260 -37.226  -1.599  1.00 20.00     0.000 A 
HETATM   21  C9  3X5 A 401     -29.852 -36.141  -2.235  1.00 20.00     0.000 A 
HETATM   22  C8  3X5 A 401     -30.393 -35.105  -1.483  1.00 20.00     0.000 A 
HETATM   23  C7  3X5 A 401     -30.341 -35.153  -0.095  1.00 20.00     0.000 A 
HETATM   24  C6  3X5 A 401     -29.749 -36.238   0.541  1.00 20.00     0.000 A 
ENDBRANCH  16  19
ENDBRANCH  11  13
BRANCH   1  25
HETATM   25  C22 3X5 A 401     -23.388 -41.982   3.250  1.00 20.00     0.313 C 
BRANCH  25  26
HETATM   26  N1  3X5 A 401     -22.436 -43.050   2.904  1.00 20.00     0.347 N 
BRANCH  26  27
HETATM   27  C23 3X5 A 401     -21.394 -42.509   2.010  1.00 20.00     0.326 C 
BRANCH  27  28
HETATM   28  C24 3X5 A 401     -20.569 -43.645   1.453  1.00 20.00     0.244 C 
HETATM   29  O1  3X5 A 401     -21.030 -44.773   1.392  1.00 20.00    -0.286 OA
ENDBRANCH  27  28
BRANCH  27  30
HETATM   30  C25 3X5 A 401     -20.492 -41.564   2.794  1.00 20.00     0.092 C 
BRANCH  30  31
HETATM   31  C26 3X5 A 401     -19.800 -40.621   1.840  1.00 20.00     0.082 A 
HETATM   32  N3  3X5 A 401     -18.578 -40.073   2.005  1.00 20.00    -0.227 NA
HETATM   33  C28 3X5 A 401     -18.320 -39.290   0.934  1.00 20.00     0.199 A 
HETATM   34  N2  3X5 A 401     -19.377 -39.342   0.095  1.00 20.00    -0.221 NA
HETATM   35  C27 3X5 A 401     -20.305 -40.160   0.635  1.00 20.00     0.116 A 
ENDBRANCH  30  31
ENDBRANCH  27  30
ENDBRANCH  26  27
ENDBRANCH  25  26
ENDBRANCH   1  25
TORSDOF 8
