REMARK  18 active torsions:
REMARK  status: ('A' for Active; 'I' for Inactive)
REMARK    1  A    between atoms: C17_2373  and  O15_2375 
REMARK       I    between atoms: C17_2373  and  N21_2383 
REMARK    2  A    between atoms: C13_2376  and  O15_2375 
REMARK    3  A    between atoms: C13_2376  and  C4_2377 
REMARK    4  A    between atoms: C23_2384  and  N21_2383 
REMARK    5  A    between atoms: C23_2384  and  C25_2385 
REMARK    6  A    between atoms: C23_2384  and  C31_2388 
REMARK    7  A    between atoms: C25_2385  and  N27_2386 
REMARK       I    between atoms: C29_2387  and  N27_2386 
REMARK    8  A    between atoms: C29_2387  and  C45_2391 
REMARK       I    between atoms: C31_2388  and  N33_2395 
REMARK    9  A    between atoms: C37_2396  and  N33_2395 
REMARK   10  A    between atoms: C37_2396  and  C39_2397 
REMARK   11  A    between atoms: C37_2396  and  C41_2399 
REMARK       I    between atoms: C39_2397  and  N49_2403 
REMARK   12  A    between atoms: C41_2399  and  C51_2400 
REMARK   13  A    between atoms: C57_2404  and  N49_2403 
REMARK   14  A    between atoms: C57_2404  and  C59_2405 
REMARK   15  A    between atoms: C57_2404  and  C63_2407 
REMARK   16  A    between atoms: C59_2405  and  C61_2406 
REMARK   17  A    between atoms: C63_2407  and  C82_2413 
REMARK   18  A    between atoms: C82_2413  and  C84_2414 
ROOT
HETATM    1  C31 ZU3 A 501      17.262   0.928  21.782  1.00 50.71     0.276 C 
HETATM    2  O35 ZU3 A 501      15.972   0.903  21.785  1.00 45.54    -0.268 OA
HETATM    3  N33 ZU3 A 501      18.014  -0.283  21.565  1.00 45.29    -0.229 NA
ENDROOT
BRANCH   1   4
HETATM    4  C23 ZU3 A 501      18.003   2.215  22.092  1.00 52.45     0.213 C 
BRANCH   4   5
HETATM    5  N21 ZU3 A 501      17.724   3.183  21.041  1.00 55.04    -0.203 NA
HETATM    6  C17 ZU3 A 501      18.660   3.479  20.037  1.00 56.99     0.384 C 
HETATM    7  O19 ZU3 A 501      19.799   2.916  20.012  1.00 58.90    -0.236 OA
BRANCH   6   8
HETATM    8  O15 ZU3 A 501      18.266   4.399  19.056  1.00 58.98    -0.279 OA
BRANCH   8   9
HETATM    9  C13 ZU3 A 501      19.339   4.839  18.167  1.00 58.59     0.180 C 
BRANCH   9  10
HETATM   10  C4  ZU3 A 501      19.997   6.055  18.775  1.00 58.22     0.008 A 
HETATM   11  C2  ZU3 A 501      21.194   5.925  19.449  1.00 58.65    -0.002 A 
HETATM   12  C1  ZU3 A 501      21.840   7.122  20.055  1.00 57.95    -0.000 A 
HETATM   13  C10 ZU3 A 501      21.241   8.339  19.934  1.00 58.11    -0.000 A 
HETATM   14  C8  ZU3 A 501      19.939   8.470  19.196  1.00 56.95    -0.000 A 
HETATM   15  C6  ZU3 A 501      19.350   7.390  18.649  1.00 56.65    -0.002 A 
ENDBRANCH   9  10
ENDBRANCH   8   9
ENDBRANCH   6   8
ENDBRANCH   4   5
BRANCH   4  16
HETATM   16  C25 ZU3 A 501      17.646   2.814  23.454  1.00 55.90     0.163 C 
BRANCH  16  17
HETATM   17  N27 ZU3 A 501      18.272   4.142  23.624  1.00 59.98    -0.235 NA
HETATM   18  C29 ZU3 A 501      19.647   4.213  24.099  1.00 64.16     0.251 C 
HETATM   19  O43 ZU3 A 501      20.266   3.144  24.354  1.00 65.40    -0.271 OA
BRANCH  18  20
HETATM   20  C45 ZU3 A 501      20.355   5.543  24.304  1.00 64.44     0.073 C 
HETATM   21  C76 ZU3 A 501      20.824   5.660  25.760  1.00 65.21     0.009 C 
HETATM   22  C78 ZU3 A 501      19.407   6.733  23.934  1.00 65.24     0.009 C 
HETATM   23  C80 ZU3 A 501      21.543   5.627  23.350  1.00 65.50     0.009 C 
ENDBRANCH  18  20
ENDBRANCH  16  17
ENDBRANCH   4  16
ENDBRANCH   1   4
BRANCH   3  24
HETATM   24  C37 ZU3 A 501      17.321  -1.550  21.358  1.00 46.15     0.186 C 
BRANCH  24  25
HETATM   25  C39 ZU3 A 501      16.515  -1.876  22.596  1.00 42.52     0.274 C 
HETATM   26  O47 ZU3 A 501      16.979  -1.539  23.723  1.00 43.35    -0.268 OA
HETATM   27  N49 ZU3 A 501      15.253  -2.541  22.543  1.00 39.06    -0.238 NA
BRANCH  27  28
HETATM   28  C57 ZU3 A 501      14.513  -2.816  23.759  1.00 37.44     0.107 C 
BRANCH  28  29
HETATM   29  C59 ZU3 A 501      13.240  -1.803  23.812  1.00 35.50     0.034 C 
BRANCH  29  30
HETATM   30  C61 ZU3 A 501      13.566  -0.370  24.254  1.00 37.99     0.085 C 
HETATM   31  C65 ZU3 A 501      12.340   0.476  24.330  1.00 40.54     0.251 C 
HETATM   32  O66 ZU3 A 501      11.405   0.411  23.511  1.00 38.94    -0.271 OA
HETATM   33  N69 ZU3 A 501      12.381   1.365  25.446  1.00 38.31    -0.238 NA
HETATM   34  C71 ZU3 A 501      13.631   1.224  26.209  1.00 42.50     0.129 C 
HETATM   35  C73 ZU3 A 501      14.178  -0.160  25.724  1.00 39.00     0.036 C 
ENDBRANCH  29  30
ENDBRANCH  28  29
BRANCH  28  36
HETATM   36  C63 ZU3 A 501      14.131  -4.275  23.684  1.00 42.81     0.032 C 
BRANCH  36  37
HETATM   37  C82 ZU3 A 501      15.424  -5.171  23.760  1.00 42.72     0.067 C 
BRANCH  37  38
HETATM   38  C84 ZU3 A 501      15.203  -6.377  24.672  1.00 44.12     0.151 C 
HETATM   39  C86 ZU3 A 501      16.360  -7.339  24.994  1.00 43.15     0.072 C 
HETATM   40  O88 ZU3 A 501      14.100  -6.618  25.114  1.00 41.08    -0.296 OA
ENDBRANCH  37  38
ENDBRANCH  36  37
ENDBRANCH  28  36
ENDBRANCH  27  28
ENDBRANCH  24  25
BRANCH  24  41
HETATM   41  C41 ZU3 A 501      18.368  -2.643  20.916  1.00 48.06     0.034 C 
BRANCH  41  42
HETATM   42  C51 ZU3 A 501      19.176  -2.454  19.586  1.00 50.81     0.002 C 
HETATM   43  C53 ZU3 A 501      20.098  -3.629  19.191  1.00 50.22     0.000 C 
HETATM   44  C55 ZU3 A 501      18.201  -2.206  18.416  1.00 49.37     0.000 C 
ENDBRANCH  41  42
ENDBRANCH  24  41
ENDBRANCH   3  24
TORSDOF 18
