#	Name:			1g2k_ligand
#	Creating user name:	suminyi
#	Creation time:		Sun Sep 30 06:51:15 2018

#	Modifying user name:	suminyi
#	Modification time:	Sun Sep 30 06:51:15 2018

@<TRIPOS>MOLECULE
1g2k_ligand
   82    86     1     1     0
SMALL
MMFF94_CHARGES


@<TRIPOS>ATOM
      1 N01        11.2000   23.5980    6.1660 N.am      1 MOL        -0.8494 
      2 S02        11.7440   22.1040    6.3600 S.o2      1 MOL         1.5760 
      3 N03        13.3430   22.2160    6.2370 N.am      1 MOL        -0.8494 
      4 C04        13.8900   22.2520    4.8540 C.3       1 MOL         0.3557 
      5 C05        14.0220   23.6900    4.2350 C.3       1 MOL         0.2800 
      6 C06        13.0270   24.7630    4.8160 C.3       1 MOL         0.2800 
      7 C07        11.5300   24.3540    4.9040 C.3       1 MOL         0.3557 
      8 C08         9.8630   23.8770    6.7270 C.3       1 MOL         0.4992 
      9 C09         9.7990   25.2600    7.3410 C.ar      1 MOL        -0.1435 
     10 C10         8.7230   26.0960    7.0590 C.ar      1 MOL        -0.1500 
     11 C11         8.6570   27.3760    7.6240 C.ar      1 MOL         0.0862 
     12 C12         9.6660   27.7860    8.5020 C.ar      1 MOL        -0.1500 
     13 C13        10.7390   26.9480    8.7860 C.ar      1 MOL        -0.1500 
     14 C14        10.8120   25.6930    8.1950 C.ar      1 MOL        -0.1500 
     15 O15        11.1160   21.1900    5.4570 O.2       1 MOL        -0.6500 
     16 O16        15.1260   20.5590    3.5690 O.3       1 MOL        -0.3625 
     17 C17        16.0580   19.5730    3.3190 C.ar      1 MOL         0.0825 
     18 C18        17.0480   19.2120    4.2400 C.ar      1 MOL        -0.1500 
     19 C19        17.9860   18.2340    3.9140 C.ar      1 MOL        -0.1500 
     20 C20        17.9310   17.6120    2.6710 C.ar      1 MOL        -0.1500 
     21 C21        16.9430   17.9630    1.7540 C.ar      1 MOL        -0.1500 
     22 C22        16.0070   18.9390    2.0830 C.ar      1 MOL        -0.1500 
     23 C23        14.1140   22.9770    7.2640 C.3       1 MOL         0.4992 
     24 C24        15.0950   22.0850    8.0090 C.ar      1 MOL        -0.1435 
     25 C25        14.6470   21.2380    9.0210 C.ar      1 MOL        -0.1500 
     26 C26        15.5330   20.3870    9.6770 C.ar      1 MOL        -0.1500 
     27 C27        16.8840   20.3960    9.3370 C.ar      1 MOL        -0.1500 
     28 C28        17.3440   21.2620    8.3440 C.ar      1 MOL        -0.1500 
     29 C29        16.4530   22.1050    7.6850 C.ar      1 MOL        -0.1500 
     30 O30        15.3710   24.1750    4.3600 O.3       1 MOL        -0.6800 
     31 O31        13.0730   25.9730    4.0470 O.3       1 MOL        -0.6800 
     32 C32        11.0580   23.6810    3.5830 C.3       1 MOL         0.2800 
     33 O33         9.6130   23.5180    3.5480 O.3       1 MOL        -0.3625 
     34 C34         8.7550   24.4800    3.0560 C.ar      1 MOL         0.0825 
     35 C35         9.1710   25.7620    2.6830 C.ar      1 MOL        -0.1500 
     36 C36         8.2630   26.6510    2.1130 C.ar      1 MOL        -0.1500 
     37 C37         6.9390   26.2620    1.9120 C.ar      1 MOL        -0.1500 
     38 C38         6.5130   24.9960    2.3080 C.ar      1 MOL        -0.1500 
     39 C39         7.4210   24.1170    2.8950 C.ar      1 MOL        -0.1500 
     40 O40        11.5470   21.7300    7.7200 O.2       1 MOL        -0.6500 
     41 C41        15.1630   21.3730    4.7670 C.3       1 MOL         0.2800 
     42 C51         7.5560   28.3380    7.3010 C.2       1 MOL         0.5438 
     43 O52         7.5320   29.4660    7.7360 O.2       1 MOL        -0.5700 
     44 N53         6.5720   27.9080    6.4940 N.am      1 MOL        -0.7301 
     45 C54         5.4230   28.7270    6.0970 C.3       1 MOL         0.3001 
     46 H1         13.1850   21.7200    4.2100 H         1 MOL         0.0000 
     47 H2         13.8180   23.5690    3.1710 H         1 MOL         0.0000 
     48 H3         13.3300   25.0300    5.8270 H         1 MOL         0.0000 
     49 H4         11.0010   25.3100    4.9610 H         1 MOL         0.0000 
     50 H5          9.6230   23.1690    7.5260 H         1 MOL         0.0000 
     51 H6          9.0960   23.7580    5.9570 H         1 MOL         0.0000 
     52 H7          7.9580   25.7380    6.3750 H         1 MOL         0.1500 
     53 H8          9.6430   28.7830    8.9450 H         1 MOL         0.1500 
     54 H9         11.5400   27.2930    9.4360 H         1 MOL         0.1500 
     55 H10        11.6710   25.0530    8.3850 H         1 MOL         0.1500 
     56 H11        17.1000   19.6930    5.2120 H         1 MOL         0.1500 
     57 H12        18.7630   17.9610    4.6250 H         1 MOL         0.1500 
     58 H13        18.6640   16.8530    2.4180 H         1 MOL         0.1500 
     59 H14        16.9100   17.4880    0.7790 H         1 MOL         0.1500 
     60 H15        15.2510   19.2430    1.3630 H         1 MOL         0.1500 
     61 H16        13.4300   23.4330    7.9850 H         1 MOL         0.0000 
     62 H17        14.6700   23.8030    6.8090 H         1 MOL         0.0000 
     63 H18        13.5960   21.2340    9.2830 H         1 MOL         0.1500 
     64 H19        15.1630   19.7050   10.4410 H         1 MOL         0.1500 
     65 H20        17.5710   19.7260    9.8440 H         1 MOL         0.1500 
     66 H21        18.3940   21.2790    8.0650 H         1 MOL         0.1500 
     67 H22        16.8100   22.7700    6.8960 H         1 MOL         0.1500 
     68 H23        15.5140   24.9080    3.6750 H         1 MOL         0.4000 
     69 H24        13.9790   26.4050    4.1870 H         1 MOL         0.4000 
     70 H25        11.5010   22.6930    3.4790 H         1 MOL         0.0000 
     71 H26        11.3890   24.2680    2.7200 H         1 MOL         0.0000 
     72 H27        10.2050   26.0820    2.8140 H         1 MOL         0.1500 
     73 H28         8.6030   27.6430    1.8180 H         1 MOL         0.1500 
     74 H29         6.2420   26.9410    1.4400 H         1 MOL         0.1500 
     75 H30         5.4840   24.6850    2.1450 H         1 MOL         0.1500 
     76 H31         7.1040   23.1280    3.2040 H         1 MOL         0.1500 
     77 H32        15.1640   20.6890    5.6190 H         1 MOL         0.0000 
     78 H33        16.0830   21.9600    4.7870 H         1 MOL         0.0000 
     79 H34         6.6570   26.9810    6.1190 H         1 MOL         0.3700 
     80 H35         4.6010   28.0790    5.7830 H         1 MOL         0.0000 
     81 H36         5.7130   29.3750    5.2680 H         1 MOL         0.0000 
     82 H37         5.0930   29.3450    6.9380 H         1 MOL         0.0000 
@<TRIPOS>BOND
     1    1    8 1    
     2    1    7 1    
     3    1    2 am   
     4    2   40 2    
     5    2   15 2    
     6    2    3 am   
     7    3   23 1    
     8    3    4 1    
     9    4   41 1    
    10    4    5 1    
    11    5   30 1    
    12    5    6 1    
    13    6   31 1    
    14    6    7 1    
    15    7   32 1    
    16   32   33 1    
    17   33   34 1    
    18   34   39 ar   
    19   34   35 ar   
    20   35   36 ar   
    21   36   37 ar   
    22   37   38 ar   
    23   38   39 ar   
    24   41   16 1    
    25   16   17 1    
    26   17   22 ar   
    27   17   18 ar   
    28   18   19 ar   
    29   19   20 ar   
    30   20   21 ar   
    31   21   22 ar   
    32   23   24 1    
    33   24   29 ar   
    34   24   25 ar   
    35   25   26 ar   
    36   26   27 ar   
    37   27   28 ar   
    38   28   29 ar   
    39    8    9 1    
    40    9   14 ar   
    41    9   10 ar   
    42   10   11 ar   
    43   11   42 1    
    44   11   12 ar   
    45   12   13 ar   
    46   13   14 ar   
    47   42   44 am   
    48   42   43 2    
    49   44   45 1    
    50    4   46 1    
    51    5   47 1    
    52    6   48 1    
    53    7   49 1    
    54    8   50 1    
    55    8   51 1    
    56   10   52 1    
    57   12   53 1    
    58   13   54 1    
    59   14   55 1    
    60   18   56 1    
    61   19   57 1    
    62   20   58 1    
    63   21   59 1    
    64   22   60 1    
    65   23   61 1    
    66   23   62 1    
    67   25   63 1    
    68   26   64 1    
    69   27   65 1    
    70   28   66 1    
    71   29   67 1    
    72   30   68 1    
    73   31   69 1    
    74   32   70 1    
    75   32   71 1    
    76   35   72 1    
    77   36   73 1    
    78   37   74 1    
    79   38   75 1    
    80   39   76 1    
    81   41   77 1    
    82   41   78 1    
    83   44   79 1    
    84   45   80 1    
    85   45   81 1    
    86   45   82 1    
@<TRIPOS>SUBSTRUCTURE
     1 MOL         1 PERM              0 ****  ****    0 ROOT 
@<TRIPOS>NORMAL
@<TRIPOS>ALT_TYPE
MMFF94_ALT_TYPE_SET 
MMFF94 4 CR 5 CR 6 CR 7 CR 8 CR 23 CR 32 CR 41 CR 45 CR 9 CB 10 CB 11 CB \
12 CB 13 CB 14 CB 17 CB 18 CB 19 CB 20 CB 21 CB 22 CB \
24 CB 25 CB 26 CB 27 CB 28 CB 29 CB 34 CB 35 CB 36 CB \
37 CB 38 CB 39 CB 42 C=ON 46 HC 47 HC 48 HC 49 HC 50 HC \
51 HC 52 HC 53 HC 54 HC 55 HC 56 HC 57 HC 58 HC 59 HC \
60 HC 61 HC 62 HC 63 HC 64 HC 65 HC 66 HC 67 HC 70 HC \
71 HC 72 HC 73 HC 74 HC 75 HC 76 HC 77 HC 78 HC 80 HC \
81 HC 82 HC 79 HNCO 68 HOR 69 HOR 43 O=CN 15 O2S 40 O2S \
16 OC=C 33 OC=C 30 OR 31 OR 1 NSO2 3 NSO2 44 NC=O 2 SO2N \

