REMARK  19 active torsions:
REMARK  status: ('A' for Active; 'I' for Inactive)
REMARK       I    between atoms: C2_1651  and  N_1665 
REMARK    1  A    between atoms: C2_1651  and  O3_1668 
REMARK    2  A    between atoms: C6_1670  and  C7_1653 
REMARK    3  A    between atoms: C20_1661  and  C33_1686 
REMARK       I    between atoms: C_1664  and  N32_1685 
REMARK    4  A    between atoms: C_1664  and  C1_1667 
REMARK    5  A    between atoms: C1_1667  and  N_1665 
REMARK    6  A    between atoms: C1_1667  and  C6_1670 
REMARK    7  A    between atoms: C6_1670  and  C8_1671 
REMARK    8  A    between atoms: C19_1675  and  N32_1685 
REMARK    9  A    between atoms: C26_1679  and  C34_1687 
REMARK   10  A    between atoms: C29_1682  and  C31_1684 
REMARK   11  A    between atoms: C31_1684  and  C33_1686 
REMARK   12  A    between atoms: C34_1687  and  O35_1688 
REMARK   13  A    between atoms: C36_1689  and  O35_1688 
REMARK   14  A    between atoms: C36_1689  and  N37@B_1691 
REMARK   15  A    between atoms: C36_1689  and  N37@A_1690 
REMARK   16  A    between atoms: C39@A_1693  and  N37@A_1690 
REMARK   17  A    between atoms: C39@B_1694  and  N37@B_1691 
REMARK   18  A    between atoms: C39@A_1693  and  C40@A_1695 
REMARK   19  A    between atoms: C39@B_1694  and  C40@B_1696 
ROOT
HETATM    1  C20 6EF B 101     -19.321  17.375  -7.564  1.00 14.88    -0.004 A 
HETATM    2  C21 6EF B 101     -18.489  17.004  -8.601  1.00 18.29    -0.003 A 
HETATM    3  C22 6EF B 101     -18.678  15.813  -9.254  1.00 17.22    -0.000 A 
HETATM    4  C19 6EF B 101     -20.353  16.517  -7.191  1.00 15.98     0.080 A 
HETATM    5  C23 6EF B 101     -19.692  14.960  -8.879  1.00 17.47     0.002 A 
HETATM    6  C24 6EF B 101     -20.533  15.305  -7.846  1.00 17.80     0.019 A 
ENDROOT
BRANCH   1   7
HETATM    7  C33 6EF B 101     -19.030  18.689  -6.880  1.00 12.63     0.030 C 
BRANCH   7   8
HETATM    8  C31 6EF B 101     -18.321  18.294  -5.601  1.00 14.89     0.036 C 
BRANCH   8   9
HETATM    9  C29 6EF B 101     -16.821  18.288  -5.798  1.00 12.15     0.152 C 
HETATM   10  C28 6EF B 101     -16.221  18.147  -4.421  1.00 11.58     0.320 C 
HETATM   11  N27 6EF B 101     -14.727  18.259  -4.507  1.00 11.89     0.345 N 
HETATM   12  C26 6EF B 101     -14.232  19.437  -5.281  1.00 13.31     0.316 C 
HETATM   13  C25 6EF B 101     -15.021  19.561  -6.580  1.00 15.08     0.181 C 
HETATM   14  O30 6EF B 101     -16.442  19.569  -6.339  1.00 14.80    -0.352 OA
BRANCH  12  15
HETATM   15  C34 6EF B 101     -14.430  20.652  -4.417  1.00 12.65     0.194 C 
BRANCH  15  16
HETATM   16  O35 6EF B 101     -13.618  21.596  -5.071  1.00 14.23    -0.272 OA
BRANCH  16  17
HETATM   17  C36 6EF B 101     -14.144  22.815  -5.238  1.00 16.49     0.388 C 
HETATM   18  O38 6EF B 101     -15.249  23.157  -4.838  1.00 18.46    -0.223 OA
BRANCH  17  19
HETATM   19  N37B6EF B 101     -13.224  23.630  -5.878  0.50 15.50    -0.197 NA
BRANCH  19  20
HETATM   20  C39B6EF B 101     -12.100  23.198  -6.705  0.50 10.29     0.159 C 
BRANCH  20  21
HETATM   21  C40B6EF B 101     -12.528  22.386  -7.865  0.50  7.38     0.002 A 
HETATM   22  C41B6EF B 101     -12.028  21.112  -8.060  0.50  5.52    -0.002 A 
HETATM   23  C42B6EF B 101     -12.534  20.403  -9.129  0.50  9.80    -0.000 A 
HETATM   24  C43B6EF B 101     -13.476  20.967  -9.972  0.50 10.85    -0.000 A 
HETATM   25  C44B6EF B 101     -13.950  22.244  -9.777  0.50  8.55    -0.000 A 
HETATM   26  C45B6EF B 101     -13.469  22.942  -8.702  0.50  8.47    -0.002 A 
ENDBRANCH  20  21
ENDBRANCH  19  20
ENDBRANCH  17  19
BRANCH  17  27
HETATM   27  N37A6EF B 101     -13.243  23.607  -5.886  0.50 16.87    -0.197 NA
BRANCH  27  28
HETATM   28  C39A6EF B 101     -12.290  24.395  -5.149  0.50 13.20     0.159 C 
BRANCH  28  29
HETATM   29  C40A6EF B 101     -12.507  24.477  -3.675  0.50 15.87     0.002 A 
HETATM   30  C45A6EF B 101     -11.558  25.127  -2.926  0.50 16.71    -0.002 A 
HETATM   31  C44A6EF B 101     -11.733  25.228  -1.567  0.50 20.57    -0.000 A 
HETATM   32  C43A6EF B 101     -12.817  24.683  -0.921  0.50 20.16    -0.000 A 
HETATM   33  C42A6EF B 101     -13.761  24.014  -1.653  0.50 18.63    -0.000 A 
HETATM   34  C41A6EF B 101     -13.593  23.935  -3.012  0.50 18.14    -0.002 A 
ENDBRANCH  28  29
ENDBRANCH  27  28
ENDBRANCH  17  27
ENDBRANCH  16  17
ENDBRANCH  15  16
ENDBRANCH  12  15
ENDBRANCH   8   9
ENDBRANCH   7   8
ENDBRANCH   1   7
BRANCH   4  35
HETATM   35  N32 6EF B 101     -21.227  16.862  -6.131  1.00 15.99    -0.210 NA
HETATM   36  C   6EF B 101     -21.357  16.062  -5.018  1.00 16.06     0.279 C 
HETATM   37  O   6EF B 101     -20.765  15.006  -4.854  1.00 14.76    -0.268 OA
BRANCH  36  38
HETATM   38  C1  6EF B 101     -22.337  16.620  -4.024  1.00 16.00     0.197 C 
BRANCH  38  39
HETATM   39  N   6EF B 101     -23.388  15.613  -3.976  1.00 15.56    -0.204 NA
HETATM   40  C2  6EF B 101     -24.711  15.943  -4.218  1.00 17.23     0.384 C 
HETATM   41  O4  6EF B 101     -25.104  17.061  -4.511  1.00 21.48    -0.236 OA
BRANCH  40  42
HETATM   42  O3  6EF B 101     -25.512  14.836  -4.063  1.00 19.99    -0.281 OA
HETATM   43  C5  6EF B 101     -26.895  15.084  -4.298  1.00 22.48     0.186 C 
ENDBRANCH  40  42
ENDBRANCH  38  39
BRANCH  38  44
HETATM   44  C6  6EF B 101     -21.655  16.798  -2.669  1.00 15.37     0.076 C 
BRANCH  44  45
HETATM   45  C8  6EF B 101     -20.699  17.954  -2.576  1.00 15.68    -0.016 A 
HETATM   46  C13 6EF B 101     -21.042  19.245  -2.941  1.00 16.26    -0.004 A 
HETATM   47  C12 6EF B 101     -20.138  20.278  -2.798  1.00 16.27    -0.000 A 
HETATM   48  C11 6EF B 101     -18.882  20.022  -2.288  1.00 17.64    -0.000 A 
HETATM   49  C10 6EF B 101     -18.538  18.740  -1.914  1.00 16.36    -0.000 A 
HETATM   50  C9  6EF B 101     -19.448  17.719  -2.061  1.00 13.40    -0.004 A 
ENDBRANCH  44  45
BRANCH  44  51
HETATM   51  C7  6EF B 101     -22.609  16.846  -1.495  1.00 17.64    -0.016 A 
HETATM   52  C14 6EF B 101     -23.712  17.689  -1.463  1.00 18.99    -0.004 A 
HETATM   53  C15 6EF B 101     -24.564  17.706  -0.373  1.00 17.40    -0.000 A 
HETATM   54  C16 6EF B 101     -24.302  16.870   0.694  1.00 19.94    -0.000 A 
HETATM   55  C17 6EF B 101     -23.196  16.036   0.674  1.00 19.78    -0.000 A 
HETATM   56  C18 6EF B 101     -22.348  16.025  -0.414  1.00 18.73    -0.004 A 
ENDBRANCH  44  51
ENDBRANCH  38  44
ENDBRANCH  36  38
ENDBRANCH   4  35
TORSDOF 19
