REMARK  11 active torsions:
REMARK  status: ('A' for Active; 'I' for Inactive)
REMARK       I    between atoms: C02_2219  and  N03_2242 
REMARK    1  A    between atoms: C02_2219  and  O22_2249 
REMARK    2  A    between atoms: C04_2220  and  C05_2221 
REMARK    3  A    between atoms: C04_2220  and  C09_2225 
REMARK    4  A    between atoms: C04_2220  and  N03_2242 
REMARK    5  A    between atoms: C05_2221  and  C06_2222 
REMARK       I    between atoms: C09_2225  and  N10_2243 
REMARK    6  A    between atoms: C11_2226  and  C19_2232 
REMARK    7  A    between atoms: C11_2226  and  C12_2227 
REMARK    8  A    between atoms: C11_2226  and  N10_2243 
REMARK    9  A    between atoms: C12_2227  and  C13_2228 
REMARK   10  A    between atoms: C23_2233  and  O22_2249 
REMARK   11  A    between atoms: C26_2236  and  C27_2237 
ROOT
HETATM    1  C04 QZG A 401     -12.324 -10.059  -8.435  1.00 37.34     0.189 C 
ENDROOT
BRANCH   1   2
HETATM    2  C05 QZG A 401     -10.938  -9.408  -8.391  1.00 40.27     0.034 C 
BRANCH   2   3
HETATM    3  C06 QZG A 401      -9.875  -9.989  -7.413  1.00 48.02     0.002 C 
HETATM    4  C07 QZG A 401      -8.600  -9.299  -7.443  1.00 34.01     0.000 C 
HETATM    5  C08 QZG A 401     -10.328 -10.108  -6.063  1.00 42.61     0.000 C 
ENDBRANCH   2   3
ENDBRANCH   1   2
BRANCH   1   6
HETATM    6  C09 QZG A 401     -13.250  -9.377  -9.478  1.00 35.51     0.274 C 
HETATM    7  N10 QZG A 401     -14.189  -8.514  -9.099  1.00 32.14    -0.236 NA
HETATM    8  O21 QZG A 401     -13.177  -9.662 -10.575  1.00 38.63    -0.268 OA
BRANCH   7   9
HETATM    9  C11 QZG A 401     -15.079  -7.891 -10.041  1.00 33.33     0.140 C 
BRANCH   9  10
HETATM   10  C19 QZG A 401     -14.701  -6.361 -10.071  1.00 28.27     0.206 C 
HETATM   11  O20 QZG A 401     -15.594  -5.801 -11.021  1.00 40.14    -0.219 OA
ENDBRANCH   9  10
BRANCH   9  12
HETATM   12  C12 QZG A 401     -16.622  -8.362  -9.788  1.00 28.51     0.041 C 
BRANCH  12  13
HETATM   13  C13 QZG A 401     -16.819  -9.754  -9.860  1.00 27.28     0.107 C 
HETATM   14  C14 QZG A 401     -18.153 -10.039  -9.515  1.00 26.48     0.259 C 
HETATM   15  N15 QZG A 401     -18.649 -10.816 -10.381  1.00 34.60    -0.210 NA
HETATM   16  O18 QZG A 401     -18.712  -9.792  -8.580  1.00 30.30    -0.270 OA
HETATM   17  C16 QZG A 401     -17.851 -11.076 -11.374  1.00 28.80     0.098 C 
HETATM   18  C17 QZG A 401     -16.744 -10.176 -11.194  1.00 27.32     0.004 C 
ENDBRANCH  12  13
ENDBRANCH   9  12
ENDBRANCH   7   9
ENDBRANCH   1   6
BRANCH   1  19
HETATM   19  N03 QZG A 401     -12.236 -11.384  -8.744  1.00 36.77    -0.205 NA
HETATM   20  C02 QZG A 401     -13.250 -12.202  -8.457  1.00 42.08     0.384 C 
HETATM   21  O01 QZG A 401     -14.212 -11.837  -7.940  1.00 33.41    -0.236 OA
BRANCH  20  22
HETATM   22  O22 QZG A 401     -13.057 -13.462  -8.802  1.00 39.71    -0.286 OA
BRANCH  22  23
HETATM   23  C23 QZG A 401     -13.984 -14.364  -8.592  1.00 43.64     0.126 C 
HETATM   24  C24 QZG A 401     -14.854 -14.591  -9.778  1.00 39.13     0.030 C 
HETATM   25  C25 QZG A 401     -15.792 -15.672  -9.744  1.00 53.19     0.003 C 
HETATM   26  C26 QZG A 401     -15.193 -17.007  -9.308  1.00 55.99     0.000 C 
HETATM   27  C30 QZG A 401     -14.336 -16.786  -8.088  1.00 45.57     0.003 C 
HETATM   28  C31 QZG A 401     -13.413 -15.632  -8.185  1.00 43.78     0.030 C 
BRANCH  26  29
HETATM   29  C27 QZG A 401     -16.207 -18.150  -9.178  1.00 51.11     0.000 C 
HETATM   30  C28 QZG A 401     -16.941 -18.431 -10.420  1.00 47.89     0.000 C 
HETATM   31  C29 QZG A 401     -15.645 -19.430  -8.676  1.00 57.53     0.000 C 
ENDBRANCH  26  29
ENDBRANCH  22  23
ENDBRANCH  20  22
ENDBRANCH   1  19
TORSDOF 11
