REMARK  14 active torsions:
REMARK  status: ('A' for Active; 'I' for Inactive)
REMARK    1  A    between atoms: C33_2262  and  O32_2270 
REMARK    2  A    between atoms: C33_2262  and  C34_2263 
REMARK    3  A    between atoms: C02_2266  and  O32_2270 
REMARK       I    between atoms: C02_2266  and  N03_2272 
REMARK    4  A    between atoms: C04_2273  and  N03_2272 
REMARK    5  A    between atoms: C04_2273  and  C05_2274 
REMARK    6  A    between atoms: C04_2273  and  C28_2276 
REMARK       I    between atoms: C05_2274  and  N06_2280 
REMARK    7  A    between atoms: C28_2276  and  C29_2277 
REMARK    8  A    between atoms: C07_2281  and  N06_2280 
REMARK    9  A    between atoms: C07_2281  and  C08_2282 
REMARK   10  A    between atoms: C07_2281  and  C15_2289 
REMARK   11  A    between atoms: C08_2282  and  C09_2283 
REMARK   12  A    between atoms: C15_2289  and  C16_2291 
REMARK       I    between atoms: C16_2291  and  N17_2293 
REMARK   13  A    between atoms: C18_2294  and  N17_2293 
REMARK   14  A    between atoms: C18_2294  and  C19_2295 
ROOT
HETATM    1  C07 VR4 A 403      18.059  17.268  -0.476  1.00 27.05     0.146 C 
ENDROOT
BRANCH   1   2
HETATM    2  N06 VR4 A 403      19.205  17.823  -1.048  1.00 25.98    -0.235 NA
HETATM    3  C05 VR4 A 403      19.809  18.983  -0.599  1.00 28.04     0.274 C 
HETATM    4  O27 VR4 A 403      19.262  19.643   0.292  1.00 27.88    -0.268 OA
BRANCH   3   5
HETATM    5  C04 VR4 A 403      21.159  19.423  -1.160  1.00 23.91     0.189 C 
BRANCH   5   6
HETATM    6  N03 VR4 A 403      21.107  20.845  -1.335  1.00 28.45    -0.205 NA
HETATM    7  C02 VR4 A 403      20.450  21.403  -2.364  1.00 36.27     0.384 C 
HETATM    8  O01 VR4 A 403      19.719  20.813  -3.132  1.00 28.18    -0.236 OA
BRANCH   7   9
HETATM    9  O32 VR4 A 403      20.669  22.752  -2.435  1.00 32.52    -0.279 OA
BRANCH   9  10
HETATM   10  C33 VR4 A 403      20.216  23.445  -3.567  1.00 36.96     0.180 C 
BRANCH  10  11
HETATM   11  C34 VR4 A 403      20.472  24.917  -3.316  1.00 35.55     0.008 A 
HETATM   12  C39 VR4 A 403      19.788  25.913  -3.990  1.00 39.49    -0.002 A 
HETATM   13  C38 VR4 A 403      20.030  27.259  -3.738  1.00 42.55    -0.000 A 
HETATM   14  C37 VR4 A 403      20.961  27.647  -2.796  1.00 41.39    -0.000 A 
HETATM   15  C36 VR4 A 403      21.660  26.671  -2.096  1.00 41.52    -0.000 A 
HETATM   16  C35 VR4 A 403      21.415  25.312  -2.346  1.00 34.98    -0.002 A 
ENDBRANCH  10  11
ENDBRANCH   9  10
ENDBRANCH   7   9
ENDBRANCH   5   6
BRANCH   5  17
HETATM   17  C28 VR4 A 403      22.250  19.014  -0.186  1.00 27.70     0.034 C 
BRANCH  17  18
HETATM   18  C29 VR4 A 403      23.620  19.161  -0.736  1.00 27.35     0.002 C 
HETATM   19  C30 VR4 A 403      24.648  19.070   0.408  1.00 30.21     0.000 C 
HETATM   20  C31 VR4 A 403      23.890  18.072  -1.718  1.00 29.79     0.000 C 
ENDBRANCH  17  18
ENDBRANCH   5  17
ENDBRANCH   3   5
ENDBRANCH   1   2
BRANCH   1  21
HETATM   21  C08 VR4 A 403      16.957  17.006  -1.538  1.00 23.12     0.037 C 
BRANCH  21  22
HETATM   22  C09 VR4 A 403      16.361  18.306  -2.045  1.00 22.96     0.085 C 
HETATM   23  C13 VR4 A 403      15.553  19.131  -0.992  1.00 25.28     0.036 C 
HETATM   24  C12 VR4 A 403      14.300  19.656  -1.715  1.00 26.29     0.129 C 
HETATM   25  N11 VR4 A 403      14.208  18.812  -2.900  1.00 24.90    -0.238 NA
HETATM   26  C10 VR4 A 403      15.336  18.043  -3.112  1.00 24.64     0.251 C 
HETATM   27  O14 VR4 A 403      15.447  17.270  -4.073  1.00 24.97    -0.271 OA
ENDBRANCH  21  22
ENDBRANCH   1  21
BRANCH   1  28
HETATM   28  C15 VR4 A 403      18.512  15.951   0.332  1.00 27.79     0.254 C 
HETATM   29  O26 VR4 A 403      19.733  16.261   1.018  1.00 27.74    -0.211 OA
BRANCH  28  30
HETATM   30  C16 VR4 A 403      17.532  15.479   1.383  1.00 29.39     0.284 C 
HETATM   31  O25 VR4 A 403      16.408  15.091   1.078  1.00 23.31    -0.268 OA
HETATM   32  N17 VR4 A 403      17.938  15.540   2.727  1.00 26.10    -0.231 NA
BRANCH  32  33
HETATM   33  C18 VR4 A 403      17.094  15.137   3.860  1.00 25.84     0.155 C 
BRANCH  33  34
HETATM   34  C19 VR4 A 403      16.364  16.298   4.467  1.00 30.62     0.002 A 
HETATM   35  C20 VR4 A 403      15.543  16.184   5.594  1.00 31.78    -0.002 A 
HETATM   36  C21 VR4 A 403      14.860  17.303   6.103  1.00 36.13    -0.000 A 
HETATM   37  C22 VR4 A 403      14.991  18.558   5.502  1.00 32.69    -0.000 A 
HETATM   38  C23 VR4 A 403      15.791  18.680   4.380  1.00 29.61    -0.000 A 
HETATM   39  C24 VR4 A 403      16.471  17.555   3.883  1.00 30.05    -0.002 A 
ENDBRANCH  33  34
ENDBRANCH  32  33
ENDBRANCH  28  30
ENDBRANCH   1  28
TORSDOF 14
