REMARK  20 active torsions:
REMARK  status: ('A' for Active; 'I' for Inactive)
REMARK    1  A    between atoms: C17_4968  and  O15_4970 
REMARK       I    between atoms: C17_4968  and  N21_4979 
REMARK    2  A    between atoms: C13_4971  and  O15_4970 
REMARK    3  A    between atoms: C13_4971  and  C4_4972 
REMARK    4  A    between atoms: C23_4984  and  C31_4978 
REMARK       I    between atoms: C31_4978  and  N33_4988 
REMARK    5  A    between atoms: C23_4984  and  N21_4979 
REMARK    6  A    between atoms: C23_4984  and  C25_4985 
REMARK    7  A    between atoms: C25_4985  and  O27_4987 
REMARK    8  A    between atoms: C29_4986  and  O27_4987 
REMARK    9  A    between atoms: C37_4989  and  N33_4988 
REMARK   10  A    between atoms: C37_4989  and  C39_4990 
REMARK   11  A    between atoms: C37_4989  and  C41_4992 
REMARK       I    between atoms: C39_4990  and  N49_5002 
REMARK   12  A    between atoms: C41_4992  and  C51_4993 
REMARK   13  A    between atoms: C3_5000  and  O86_4999 
REMARK   14  A    between atoms: C84_5013  and  O86_4999 
REMARK   15  A    between atoms: C57_5003  and  N49_5002 
REMARK   16  A    between atoms: C57_5003  and  C59_5004 
REMARK   17  A    between atoms: C57_5003  and  C63_5006 
REMARK   18  A    between atoms: C59_5004  and  C61_5005 
REMARK   19  A    between atoms: C63_5006  and  C82_5012 
REMARK   20  A    between atoms: C82_5012  and  C84_5013 
ROOT
HETATM    1  C37 G85 B 501     -16.749  50.968  20.391  1.00 41.33     0.191 C 
ENDROOT
BRANCH   1   2
HETATM    2  N33 G85 B 501     -17.506  50.236  21.399  1.00 41.70    -0.228 NA
HETATM    3  C31 G85 B 501     -16.910  49.341  22.197  1.00 44.88     0.277 C 
HETATM    4  O35 G85 B 501     -15.744  48.982  22.049  1.00 43.61    -0.268 OA
BRANCH   3   5
HETATM    5  C23 G85 B 501     -17.737  48.773  23.346  1.00 51.28     0.218 C 
BRANCH   5   6
HETATM    6  N21 G85 B 501     -17.911  47.348  23.112  1.00 50.67    -0.202 NA
HETATM    7  C17 G85 B 501     -19.130  46.783  23.071  1.00 52.47     0.384 C 
HETATM    8  O19 G85 B 501     -20.177  47.361  23.288  1.00 48.58    -0.236 OA
BRANCH   7   9
HETATM    9  O15 G85 B 501     -19.021  45.475  22.756  1.00 55.11    -0.279 OA
BRANCH   9  10
HETATM   10  C13 G85 B 501     -20.250  44.691  22.664  1.00 60.41     0.180 C 
BRANCH  10  11
HETATM   11  C4  G85 B 501     -19.858  43.255  22.837  1.00 63.97     0.008 A 
HETATM   12  C2  G85 B 501     -19.551  42.467  21.738  1.00 65.29    -0.002 A 
HETATM   13  C1  G85 B 501     -18.958  41.224  21.905  1.00 64.85    -0.000 A 
HETATM   14  C10 G85 B 501     -18.675  40.755  23.167  1.00 64.40    -0.000 A 
HETATM   15  C8  G85 B 501     -19.040  41.496  24.267  1.00 64.88    -0.000 A 
HETATM   16  C6  G85 B 501     -19.627  42.739  24.105  1.00 65.82    -0.002 A 
ENDBRANCH  10  11
ENDBRANCH   9  10
ENDBRANCH   7   9
ENDBRANCH   5   6
BRANCH   5  17
HETATM   17  C25 G85 B 501     -16.919  49.032  24.602  1.00 54.57     0.176 C 
BRANCH  17  18
HETATM   18  O27 G85 B 501     -17.661  48.532  25.713  1.00 60.87    -0.356 OA
BRANCH  18  19
HETATM   19  C29 G85 B 501     -17.015  47.970  26.880  1.00 65.23     0.093 C 
HETATM   20  C12 G85 B 501     -15.743  48.714  27.239  1.00 66.02     0.030 C 
HETATM   21  C45 G85 B 501     -18.066  48.144  27.957  1.00 65.91     0.030 C 
HETATM   22  C43 G85 B 501     -16.734  46.502  26.623  1.00 63.17     0.030 C 
ENDBRANCH  18  19
ENDBRANCH  17  18
ENDBRANCH   5  17
ENDBRANCH   3   5
ENDBRANCH   1   2
BRANCH   1  23
HETATM   23  C39 G85 B 501     -15.593  51.701  21.051  1.00 41.36     0.274 C 
HETATM   24  O47 G85 B 501     -15.756  52.275  22.124  1.00 41.73    -0.268 OA
HETATM   25  N49 G85 B 501     -14.431  51.663  20.398  1.00 40.07    -0.238 NA
BRANCH  25  26
HETATM   26  C57 G85 B 501     -13.269  52.440  20.810  1.00 39.94     0.107 C 
BRANCH  26  27
HETATM   27  C59 G85 B 501     -12.158  51.504  21.281  1.00 36.33     0.034 C 
BRANCH  27  28
HETATM   28  C61 G85 B 501     -12.562  50.763  22.567  1.00 37.40     0.085 C 
HETATM   29  C65 G85 B 501     -11.365  50.032  23.028  1.00 35.08     0.251 C 
HETATM   30  O66 G85 B 501     -10.721  49.311  22.282  1.00 34.72    -0.271 OA
HETATM   31  N69 G85 B 501     -11.138  50.221  24.330  1.00 37.52    -0.238 NA
HETATM   32  C71 G85 B 501     -12.135  51.066  24.968  1.00 39.40     0.129 C 
HETATM   33  C73 G85 B 501     -12.942  51.634  23.786  1.00 39.56     0.036 C 
ENDBRANCH  27  28
ENDBRANCH  26  27
BRANCH  26  34
HETATM   34  C63 G85 B 501     -12.881  53.301  19.578  1.00 40.55     0.035 C 
BRANCH  34  35
HETATM   35  C82 G85 B 501     -13.955  54.348  19.375  1.00 48.61     0.098 C 
BRANCH  35  36
HETATM   36  C84 G85 B 501     -13.419  55.734  19.174  1.00 53.93     0.272 C 
HETATM   37  O88 G85 B 501     -12.322  56.001  18.752  1.00 52.17    -0.264 OA
BRANCH  36  38
HETATM   38  O86 G85 B 501     -14.321  56.634  19.571  1.00 58.13    -0.302 OA
BRANCH  38  39
HETATM   39  C3  G85 B 501     -14.091  58.032  19.220  1.00 59.50     0.152 C 
HETATM   40  C5  G85 B 501     -15.011  58.325  18.152  1.00 60.88     0.035 C 
ENDBRANCH  38  39
ENDBRANCH  36  38
ENDBRANCH  35  36
ENDBRANCH  34  35
ENDBRANCH  26  34
ENDBRANCH  25  26
ENDBRANCH   1  23
BRANCH   1  41
HETATM   41  C41 G85 B 501     -17.587  52.039  19.671  1.00 43.99     0.060 C 
BRANCH  41  42
HETATM   42  C51 G85 B 501     -18.791  51.531  18.917  1.00 49.73    -0.020 A 
HETATM   43  C53 G85 B 501     -19.885  52.357  18.704  1.00 51.39    -0.004 A 
HETATM   44  C7  G85 B 501     -21.001  51.895  18.024  1.00 52.76    -0.000 A 
HETATM   45  C9  G85 B 501     -21.041  50.605  17.561  1.00 54.30    -0.000 A 
HETATM   46  C11 G85 B 501     -19.962  49.769  17.770  1.00 52.97    -0.000 A 
HETATM   47  C55 G85 B 501     -18.840  50.232  18.428  1.00 50.96    -0.004 A 
ENDBRANCH  41  42
ENDBRANCH   1  41
TORSDOF 20
