REMARK  8 active torsions:
REMARK  status: ('A' for Active; 'I' for Inactive)
REMARK    1  A    between atoms: C02_2522  and  N03_2509 
REMARK       I    between atoms: C04_2523  and  N03_2509 
REMARK    2  A    between atoms: C04_2523  and  C05_2510 
REMARK    3  A    between atoms: C10_2515  and  N11_2524 
REMARK    4  A    between atoms: C12_2516  and  N11_2524 
REMARK    5  A    between atoms: C02_2522  and  C18_2520 
REMARK    6  A    between atoms: C22_2530  and  C23_2531 
REMARK    7  A    between atoms: C26_2534  and  C27_2535 
REMARK    8  A    between atoms: C27_2535  and  N28_2536 
REMARK       I    between atoms: C29_2537  and  N28_2536 
ROOT
HETATM    1  C01 Y61 A 401       2.074  12.155  32.235  1.00 28.30     0.031 C 
HETATM    2  C02 Y61 A 401       1.902  11.914  33.732  1.00 28.89     0.129 C 
ENDROOT
BRANCH   2   3
HETATM    3  C18 Y61 A 401       2.758  12.827  34.582  1.00 30.28    -0.000 A 
HETATM    4  C19 Y61 A 401       4.143  12.764  34.408  1.00 30.55    -0.002 A 
HETATM    5  C20 Y61 A 401       4.972  13.587  35.169  1.00 31.73    -0.000 A 
HETATM    6  C21 Y61 A 401       4.456  14.476  36.127  1.00 33.10     0.001 A 
HETATM    7  C22 Y61 A 401       3.052  14.597  36.358  1.00 34.52     0.006 A 
HETATM    8  C33 Y61 A 401       2.261  13.724  35.551  1.00 32.25    -0.002 A 
BRANCH   7   9
HETATM    9  C23 Y61 A 401       2.495  15.508  37.397  1.00 36.28     0.029 A 
HETATM   10  C24 Y61 A 401       3.066  16.166  38.437  1.00 38.04     0.007 A 
HETATM   11  C25 Y61 A 401       2.200  16.958  39.301  1.00 41.38     0.005 A 
HETATM   12  C26 Y61 A 401       0.880  16.926  38.968  1.00 44.44     0.032 A 
HETATM   13  S32 Y61 A 401       0.747  15.861  37.527  1.00 40.08    -0.089 SA
BRANCH  12  14
HETATM   14  C27 Y61 A 401      -0.340  17.609  39.605  1.00 48.30     0.161 C 
BRANCH  14  15
HETATM   15  N28 Y61 A 401      -0.704  19.034  39.255  1.00 52.00    -0.233 NA
HETATM   16  C29 Y61 A 401      -1.226  20.033  40.084  1.00 53.23     0.252 C 
HETATM   17  C30 Y61 A 401      -1.505  19.824  41.514  1.00 53.48     0.100 C 
HETATM   18  O31 Y61 A 401      -1.487  21.193  39.646  1.00 53.70    -0.271 OA
ENDBRANCH  14  15
ENDBRANCH  12  14
ENDBRANCH   7   9
ENDBRANCH   2   3
BRANCH   2  19
HETATM   19  N03 Y61 A 401       2.132  10.491  34.088  1.00 28.63    -0.232 NA
HETATM   20  C04 Y61 A 401       1.824   9.799  35.265  1.00 27.98     0.275 C 
HETATM   21  O17 Y61 A 401       1.200  10.438  36.152  1.00 25.64    -0.266 OA
BRANCH  20  22
HETATM   22  C05 Y61 A 401       2.058   8.361  35.593  1.00 28.90     0.055 A 
HETATM   23  C06 Y61 A 401       0.996   7.479  35.413  1.00 29.63    -0.017 A 
HETATM   24  C07 Y61 A 401      -0.325   7.919  34.888  1.00 30.44     0.031 C 
HETATM   25  C08 Y61 A 401       1.193   6.140  35.728  1.00 29.78    -0.003 A 
HETATM   26  C09 Y61 A 401       2.366   5.640  36.211  1.00 30.50     0.018 A 
HETATM   27  C10 Y61 A 401       3.474   6.464  36.422  1.00 31.75     0.076 A 
HETATM   28  C16 Y61 A 401       3.287   7.847  36.105  1.00 30.21     0.023 A 
BRANCH  27  29
HETATM   29  N11 Y61 A 401       4.654   5.833  36.960  1.00 34.62    -0.268 NA
BRANCH  29  30
HETATM   30  C12 Y61 A 401       5.953   6.359  37.123  1.00 36.95     0.175 C 
HETATM   31  C13 Y61 A 401       7.103   5.286  36.945  1.00 38.67     0.316 C 
HETATM   32  N14 Y61 A 401       7.256   5.754  35.493  1.00 40.19     0.343 N 
HETATM   33  C15 Y61 A 401       6.623   7.081  35.866  1.00 38.39     0.316 C 
ENDBRANCH  29  30
ENDBRANCH  27  29
ENDBRANCH  20  22
ENDBRANCH   2  19
TORSDOF 8
