REMARK  11 active torsions:
REMARK  status: ('A' for Active; 'I' for Inactive)
REMARK    1  A    between atoms: O3_1240  and  PA_1218 
REMARK    2  A    between atoms: O5B_1221  and  PA_1218 
REMARK    3  A    between atoms: C5B_1222  and  O5B_1221 
REMARK    4  A    between atoms: C4B_1223  and  C5B_1222 
REMARK    5  A    between atoms: C1B_1229  and  N9A_1230 
REMARK    6  A    between atoms: O3_1240  and  PN_1241 
REMARK    7  A    between atoms: O5D_1244  and  PN_1241 
REMARK    8  A    between atoms: C5D_1245  and  O5D_1244 
REMARK    9  A    between atoms: C4D_1246  and  C5D_1245 
REMARK   10  A    between atoms: C1D_1252  and  N1N_1253 
REMARK   11  A    between atoms: C3N_1255  and  C7N_1256 
ROOT
HETATM    1  PA  NAD A 500      34.338  20.482  48.924  1.00 17.89     0.418 P 
HETATM    2  O1A NAD A 500      34.409  21.122  47.576  1.00 17.65    -0.624 OA
HETATM    3  O2A NAD A 500      33.004  20.700  49.069  1.00 16.79    -0.624 OA
ENDROOT
BRANCH   1   4
HETATM    4  O3  NAD A 500      35.384  21.401  49.671  1.00 16.80    -0.180 OA
BRANCH   4   5
HETATM    5  PN  NAD A 500      36.934  21.739  49.482  1.00 16.69     0.418 P 
HETATM    6  O1N NAD A 500      37.521  21.008  48.339  1.00 15.07    -0.624 OA
HETATM    7  O2N NAD A 500      37.624  21.698  50.791  1.00 15.30    -0.624 OA
BRANCH   5   8
HETATM    8  O5D NAD A 500      36.631  23.272  49.057  1.00 19.32    -0.268 OA
BRANCH   8   9
HETATM    9  C5D NAD A 500      36.080  24.126  50.094  1.00 22.27     0.187 C 
BRANCH   9  10
HETATM   10  C4D NAD A 500      35.310  25.413  49.819  1.00 25.25     0.181 C 
HETATM   11  C3D NAD A 500      34.086  25.524  48.929  1.00 27.48     0.216 C 
HETATM   12  C2D NAD A 500      33.738  27.002  49.171  1.00 29.21     0.234 C 
HETATM   13  O3D NAD A 500      32.974  24.724  49.314  1.00 27.63    -0.218 OA
HETATM   14  C1D NAD A 500      35.114  27.602  49.551  1.00 29.72     0.239 C 
HETATM   15  O2D NAD A 500      32.964  27.148  50.362  1.00 30.02    -0.216 OA
HETATM   16  O4D NAD A 500      36.073  26.572  49.408  1.00 28.01    -0.331 OA
BRANCH  14  17
HETATM   17  N1N NAD A 500      35.618  28.961  48.795  1.00 33.39    -0.301 N 
HETATM   18  C2N NAD A 500      34.603  29.846  48.792  1.00 36.16     0.083 A 
HETATM   19  C3N NAD A 500      34.831  31.171  48.460  1.00 37.67     0.077 A 
HETATM   20  C4N NAD A 500      36.116  31.551  48.082  1.00 36.94     0.008 A 
HETATM   21  C5N NAD A 500      37.133  30.610  48.044  1.00 35.77     0.019 A 
HETATM   22  C6N NAD A 500      36.864  29.302  48.410  1.00 34.65     0.078 A 
BRANCH  19  23
HETATM   23  C7N NAD A 500      33.704  32.170  48.541  1.00 39.56     0.298 C 
HETATM   24  N7N NAD A 500      33.972  33.434  48.239  1.00 40.29    -0.102 N 
HETATM   25  O7N NAD A 500      32.563  31.785  48.860  1.00 40.79    -0.264 OA
ENDBRANCH  19  23
ENDBRANCH  14  17
ENDBRANCH   9  10
ENDBRANCH   8   9
ENDBRANCH   5   8
ENDBRANCH   4   5
ENDBRANCH   1   4
BRANCH   1  26
HETATM   26  O5B NAD A 500      34.694  19.074  48.444  1.00 18.04    -0.268 OA
BRANCH  26  27
HETATM   27  C5B NAD A 500      34.888  18.160  49.550  1.00 17.17     0.187 C 
BRANCH  27  28
HETATM   28  C4B NAD A 500      34.656  16.756  49.058  1.00 16.95     0.181 C 
HETATM   29  C3B NAD A 500      34.584  16.602  47.538  1.00 16.60     0.216 C 
HETATM   30  C2B NAD A 500      33.083  16.706  47.273  1.00 16.69     0.234 C 
HETATM   31  O3B NAD A 500      35.084  15.333  47.143  1.00 17.03    -0.218 OA
HETATM   32  C1B NAD A 500      32.546  15.941  48.475  1.00 16.82     0.241 C 
HETATM   33  O2B NAD A 500      32.667  16.065  46.072  1.00 16.16    -0.216 OA
HETATM   34  O4B NAD A 500      33.388  16.280  49.563  1.00 17.08    -0.331 OA
BRANCH  32  35
HETATM   35  N9A NAD A 500      31.175  16.250  48.854  1.00 16.84    -0.270 N 
HETATM   36  C4A NAD A 500      30.429  15.528  49.750  1.00 16.81     0.170 A 
HETATM   37  C5A NAD A 500      29.200  16.161  49.818  1.00 17.05     0.155 A 
HETATM   38  N3A NAD A 500      30.817  14.453  50.446  1.00 17.03    -0.205 NA
HETATM   39  N7A NAD A 500      29.175  17.272  48.986  1.00 17.20    -0.219 NA
HETATM   40  C6A NAD A 500      28.251  15.608  50.700  1.00 17.31     0.206 A 
HETATM   41  C8A NAD A 500      30.368  17.279  48.441  1.00 17.04     0.182 A 
HETATM   42  N6A NAD A 500      26.999  16.056  50.824  1.00 17.51    -0.125 N 
HETATM   43  N1A NAD A 500      28.624  14.533  51.431  1.00 16.51    -0.202 NA
HETATM   44  C2A NAD A 500      29.852  14.036  51.265  1.00 17.15     0.202 A 
ENDBRANCH  32  35
ENDBRANCH  27  28
ENDBRANCH  26  27
ENDBRANCH   1  26
TORSDOF 11
