REMARK  10 active torsions:
REMARK  status: ('A' for Active; 'I' for Inactive)
REMARK    1  A    between atoms: C2_1623  and  C4_1656 
REMARK    2  A    between atoms: C12_1628  and  C13_1629 
REMARK    3  A    between atoms: C12_1628  and  C4_1656 
REMARK    4  A    between atoms: C14_1648  and  N19_1632 
REMARK       I    between atoms: C20_1633  and  N19_1632 
REMARK    5  A    between atoms: C20_1633  and  C22_1634 
REMARK    6  A    between atoms: C22_1634  and  C23_1657 
REMARK    7  A    between atoms: C23_1657  and  C25_1646 
REMARK    8  A    between atoms: C23_1657  and  C24_1647 
REMARK    9  A    between atoms: C6_1651  and  S_1666 
REMARK   10  A    between atoms: N3_1658  and  S_1666 
ROOT
HETATM    1  C13 CKV B 101     -13.938  23.659  -3.714  1.00 14.86     0.023 A 
HETATM    2  C15 CKV B 101     -12.001  25.039  -3.212  1.00 19.02     0.019 A 
HETATM    3  C18 CKV B 101     -14.231  23.694  -2.360  1.00 18.61     0.138 A 
HETATM    4  C16 CKV B 101     -12.308  25.043  -1.859  1.00 19.25     0.004 A 
HETATM    5  C17 CKV B 101     -13.435  24.363  -1.454  1.00 17.70     0.029 A 
HETATM    6  C14 CKV B 101     -12.796  24.354  -4.121  1.00 17.02     0.083 A 
HETATM    7  F   CKV B 101     -15.330  23.053  -1.933  1.00 21.06    -0.204 F 
ENDROOT
BRANCH   6   8
HETATM    8  N19 CKV B 101     -12.405  24.394  -5.497  1.00 15.18    -0.212 NA
HETATM    9  C20 CKV B 101     -11.191  23.913  -5.920  1.00 14.74     0.256 C 
HETATM   10  O21 CKV B 101     -10.395  23.353  -5.188  1.00 14.35    -0.270 OA
BRANCH   9  11
HETATM   11  C22 CKV B 101     -10.895  24.157  -7.382  1.00 15.68     0.099 C 
BRANCH  11  12
HETATM   12  C23 CKV B 101     -10.932  22.850  -8.177  1.00 17.04     0.054 C 
BRANCH  12  13
HETATM   13  C24 CKV B 101     -12.322  22.343  -8.430  1.00 16.56    -0.018 A 
HETATM   14  C35 CKV B 101     -13.278  23.120  -9.066  1.00 17.74    -0.002 A 
HETATM   15  C34 CKV B 101     -14.530  22.621  -9.332  1.00 19.38     0.029 A 
HETATM   16  C33 CKV B 101     -14.825  21.333  -8.946  1.00 20.69     0.140 A 
HETATM   17  C32 CKV B 101     -13.894  20.538  -8.309  1.00 17.14     0.029 A 
HETATM   18  F36 CKV B 101     -16.063  20.844  -9.195  1.00 27.34    -0.204 F 
HETATM   19  C31 CKV B 101     -12.631  21.045  -8.064  1.00 15.92    -0.002 A 
ENDBRANCH  12  13
BRANCH  12  20
HETATM   20  C25 CKV B 101     -10.164  22.880  -9.486  1.00 21.84    -0.018 A 
HETATM   21  C26 CKV B 101      -9.215  21.910  -9.759  1.00 21.15    -0.002 A 
HETATM   22  C27 CKV B 101      -8.529  21.940 -10.964  1.00 24.63     0.029 A 
HETATM   23  C28 CKV B 101      -8.800  22.930 -11.887  1.00 27.26     0.140 A 
HETATM   24  C29 CKV B 101      -9.752  23.894 -11.636  1.00 24.67     0.029 A 
HETATM   25  F37 CKV B 101      -8.139  22.973 -13.062  1.00 30.73    -0.204 F 
HETATM   26  C30 CKV B 101     -10.430  23.857 -10.430  1.00 23.68    -0.002 A 
ENDBRANCH  12  20
ENDBRANCH  11  12
ENDBRANCH   9  11
ENDBRANCH   6   8
BRANCH   1  27
HETATM   27  C12 CKV B 101     -14.845  22.902  -4.664  1.00 16.46     0.032 C 
BRANCH  27  28
HETATM   28  C4  CKV B 101     -14.833  21.363  -4.573  1.00 18.23     0.024 C 
BRANCH  28  29
HETATM   29  C2  CKV B 101     -16.059  20.680  -5.214  1.00 20.74     0.097 C 
HETATM   30  C1  CKV B 101     -16.024  19.155  -5.082  1.00 22.88     0.137 C 
HETATM   31  N   CKV B 101     -16.609  18.722  -3.777  1.00 22.99    -0.295 NA
HETATM   32  C   CKV B 101     -17.953  19.230  -3.408  1.00 23.75     0.115 C 
HETATM   33  C39 CKV B 101     -18.227  18.797  -1.989  1.00 24.67     0.027 C 
HETATM   34  C38 CKV B 101     -17.876  20.735  -3.413  1.00 23.93     0.112 C 
HETATM   35  N3  CKV B 101     -17.311  21.275  -4.681  1.00 21.61    -0.174 NA
BRANCH  35  36
HETATM   36  S   CKV B 101     -18.573  21.513  -5.844  1.00 26.52     0.247 S 
HETATM   37  O   CKV B 101     -17.883  22.204  -6.924  1.00 25.81    -0.206 OA
HETATM   38  O5  CKV B 101     -19.671  22.152  -5.134  1.00 29.10    -0.206 OA
BRANCH  36  39
HETATM   39  C6  CKV B 101     -19.277  20.033  -6.558  1.00 28.41     0.098 A 
HETATM   40  C11 CKV B 101     -20.496  19.582  -6.088  1.00 30.30     0.012 A 
HETATM   41  C10 CKV B 101     -21.043  18.443  -6.650  1.00 32.13     0.001 A 
HETATM   42  C9  CKV B 101     -20.379  17.780  -7.668  1.00 32.24     0.000 A 
HETATM   43  C8  CKV B 101     -19.165  18.247  -8.133  1.00 31.72     0.001 A 
HETATM   44  C7  CKV B 101     -18.610  19.387  -7.580  1.00 29.43     0.012 A 
ENDBRANCH  36  39
ENDBRANCH  35  36
ENDBRANCH  28  29
ENDBRANCH  27  28
ENDBRANCH   1  27
TORSDOF 10
