@<TRIPOS>MOLECULE
443_1_3KL6
   58    61     0     0     0
SMALL
USER_CHARGES

@<TRIPOS>ATOM
      1 C1          6.1080   -7.5760  -14.7230 C.ar      1 <0>        -0.0522
      2 C2          4.7170   -4.3970  -16.0770 C.ar      1 <0>        -0.0526
      3 C3          5.3910   -8.4820  -15.4340 C.ar      1 <0>        -0.0363
      4 C4          5.4380   -3.4900  -15.3520 C.ar      1 <0>        -0.0428
      5 C5          4.2010   -6.7420  -16.6030 C.ar      1 <0>        -0.0292
      6 C6          6.6140   -5.2410  -14.2010 C.ar      1 <0>        -0.0357
      7 C7         -0.6430   -8.9470   -7.5730 C.3       1 <0>        -0.0214
      8 C8         -1.5500  -10.0320  -11.7370 C.3       1 <0>        -0.0183
      9 C9          0.8120  -10.7620  -11.3100 C.3       1 <0>        -0.0183
     10 C10        -0.8380  -10.1060   -6.5880 C.3       1 <0>         0.0145
     11 C11         0.0020   -9.4580   -8.8660 C.3       1 <0>         0.0178
     12 C12        -1.4730  -10.5620  -13.1870 C.3       1 <0>         0.0164
     13 C13         0.9450  -11.1940  -12.7730 C.3       1 <0>         0.0164
     14 C14         1.8430   -9.1500  -16.5290 C.3       1 <0>         0.1052
     15 C15         4.9240   -5.7800  -15.8780 C.ar      1 <0>        -0.0160
     16 C16         5.8930   -6.2020  -14.9260 C.ar      1 <0>        -0.0164
     17 C17         4.4350   -8.0650  -16.3690 C.ar      1 <0>         0.0889
     18 C18         6.3900   -3.9080  -14.3980 C.ar      1 <0>         0.0416
     19 C19        -0.6470  -10.9160  -10.8590 C.3       1 <0>         0.0303
     20 C20        -1.4060  -11.4380   -8.5860 C.2       1 <0>         0.3025
     21 C21         1.7620   -9.8460  -15.1700 C.3       1 <0>         0.1506
     22 C22         0.3040   -9.9030  -14.7670 C.2       1 <0>         0.2458
     23 N1         -1.4890  -11.2330   -7.2580 N.am      1 <0>        -0.2992
     24 N2         -0.0590  -10.5200  -13.6180 N.am      1 <0>        -0.2992
     25 N3         -0.7190  -10.6220   -9.4150 N.am      1 <0>        -0.2824
     26 O1          2.4780   -9.0860  -14.1740 O.3       1 <0>        -0.3809
     27 O2         -1.9810  -12.4010   -9.0530 O.2       1 <0>        -0.2526
     28 O3         -0.5350   -9.3670  -15.4730 O.2       1 <0>        -0.2727
     29 O4          4.0900  -10.5140  -16.9920 O.2       1 <0>        -0.1693
     30 O5          3.3890   -8.7440  -18.5940 O.2       1 <0>        -0.1693
     31 S1          3.4910   -9.2420  -17.2640 S.o2      1 <0>        -0.0002
     32 Cl1         7.2870   -2.7420  -13.4710 Cl        1 <0>        -0.0835
     33 H1          6.8413   -7.9094  -14.0036 H         1 <0>         0.0624
     34 H2          3.9907   -4.0570  -16.8004 H         1 <0>         0.0624
     35 H3          5.5593   -9.5372  -15.2773 H         1 <0>         0.0637
     36 H4          5.2762   -2.4343  -15.5122 H         1 <0>         0.0632
     37 H5          3.4690   -6.4376  -17.3365 H         1 <0>         0.0643
     38 H6          7.3531   -5.5583  -13.4803 H         1 <0>         0.0638
     39 H7         -1.6209   -8.5010   -7.8069 H         1 <0>         0.0295
     40 H8          0.0102   -8.1888   -7.1166 H         1 <0>         0.0295
     41 H9         -1.2045   -8.9883  -11.6998 H         1 <0>         0.0298
     42 H10        -2.5876  -10.0784  -11.3748 H         1 <0>         0.0298
     43 H11         1.4579  -11.3931  -10.6818 H         1 <0>         0.0298
     44 H12         1.1170   -9.7099  -11.2098 H         1 <0>         0.0298
     45 H13         0.1428  -10.4276   -6.2078 H         1 <0>         0.0463
     46 H14        -1.4675   -9.7688   -5.7513 H         1 <0>         0.0463
     47 H15        -0.0140   -8.6494   -9.6116 H         1 <0>         0.0466
     48 H16         1.0387   -9.7553   -8.6495 H         1 <0>         0.0466
     49 H17        -1.8469  -11.5957  -13.2285 H         1 <0>         0.0465
     50 H18        -2.0855   -9.9324  -13.8492 H         1 <0>         0.0465
     51 H19         1.9502  -10.9301  -13.1334 H         1 <0>         0.0465
     52 H20         0.7953  -12.2818  -12.8392 H         1 <0>         0.0465
     53 H21         1.1309   -9.6371  -17.2114 H         1 <0>         0.0535
     54 H22         1.5827   -8.0900  -16.3922 H         1 <0>         0.0535
     55 H23        -1.0171  -11.9431  -10.9933 H         1 <0>         0.0502
     56 H24         2.2028  -10.8513  -15.2420 H         1 <0>         0.0707
     57 H25        -2.0177  -11.8778   -6.7060 H         1 <0>         0.1502
     58 H26         2.4201   -9.5285  -13.3353 H         1 <0>         0.2105
@<TRIPOS>BOND
     1    1    3 ar
     2    1   16 ar
     3    2    4 ar
     4    2   15 ar
     5    3   17 ar
     6    4   18 ar
     7    5   15 ar
     8    5   17 ar
     9    6   16 ar
    10    6   18 ar
    11    7   10 1
    12    7   11 1
    13    8   12 1
    14    8   19 1
    15    9   13 1
    16    9   19 1
    17   10   23 1
    18   11   25 1
    19   12   24 1
    20   13   24 1
    21   14   21 1
    22   14   31 1
    23   15   16 ar
    24   17   31 1
    25   18   32 1
    26   19   25 1
    27   20   23 am
    28   20   25 am
    29   20   27 2
    30   21   22 1
    31   21   26 1
    32   22   24 am
    33   22   28 2
    34   29   31 2
    35   30   31 2
    36    1   33 1
    37    2   34 1
    38    3   35 1
    39    4   36 1
    40    5   37 1
    41    6   38 1
    42    7   39 1
    43    7   40 1
    44    8   41 1
    45    8   42 1
    46    9   43 1
    47    9   44 1
    48   10   45 1
    49   10   46 1
    50   11   47 1
    51   11   48 1
    52   12   49 1
    53   12   50 1
    54   13   51 1
    55   13   52 1
    56   14   53 1
    57   14   54 1
    58   19   55 1
    59   21   56 1
    60   23   57 1
    61   26   58 1
