3vws_ligand

Created by X-TOOL on Fri Nov 18 17:28:07 2016
 35 37  0  0  0  0  0  0  0  0999 V2000
   36.7950   61.6280   14.1380 Cl 0  0  0  1  0  1
   35.3500   62.4450   13.5400  C 0  0  0  1  0  3
   35.5820   63.7580   13.1470  C 0  0  0  2  0  3
   34.5240   64.5220   12.6650  C 0  0  0  2  0  3
   34.0630   61.8430   13.4470  C 0  0  0  2  0  3
   32.9920   62.6320   12.9460  C 0  0  0  2  0  3
   33.2330   64.0060   12.5480  C 0  0  0  1  0  3
   32.1290   65.0580   12.0050  S 0  0  0  1  0  4
   32.1950   65.5620   10.6460  O 0  0  0  1  0  1
   31.0920   64.1400   11.5530  O 0  0  0  1  0  1
   31.1860   65.6660   13.1420  N 0  0  0  2  0  3
   30.8340   65.2000   14.3800  C 0  0  0  1  0  3
   30.1130   63.9830   14.5600  C 0  0  0  2  0  3
   29.7240   63.5680   15.8640  C 0  0  0  2  0  3
   31.1710   66.0150   15.5170  C 0  0  0  2  0  3
   30.7740   65.6000   16.8230  C 0  0  0  1  0  3
   30.8980   66.0980   18.1610  C 0  0  0  1  0  3
   31.6110   67.3900   18.5440  C 0  5  0  1  0  3
   32.1090   68.1640   17.6910  O 0  0  0  1  0  1
   31.7330   67.6640   19.7640  O 0  0  0  1  0  1
   30.0620   64.3920   16.9780  C 0  0  0  1  0  3
   29.7760   64.1600   18.2480  O 0  0  0  1  0  2
   30.2570   65.1930   19.0260  C 0  0  0  1  0  3
   30.0100   65.0910   20.5270  C 0  0  0  4  0  4
   36.5772   64.1823   13.2154  H 0  0  0  1  0  1
   34.7082   65.5491   12.3715  H 0  0  0  1  0  1
   33.9047   60.8141   13.7491  H 0  0  0  1  0  1
   31.9979   62.2081   12.8616  H 0  0  0  1  0  1
   30.7784   66.5482   12.9063  H 0  0  0  1  0  1
   29.8606   63.3723   13.7007  H 0  0  0  1  0  1
   29.1801   62.6415   16.0084  H 0  0  0  1  0  1
   31.7229   66.9382   15.3821  H 0  0  0  1  0  1
   29.4426   64.1739   20.7437  H 0  0  0  1  0  1
   29.4352   65.9661   20.8643  H 0  0  0  1  0  1
   30.9739   65.0593   21.0559  H 0  0  0  1  0  1
  1  2  1  0  0  2
  2  3  4  0  0  1
  2  5  4  0  0  1
  3  4  4  0  0  1
  4  7  4  0  0  1
  5  6  4  0  0  1
  6  7  4  0  0  1
  7  8  1  0  0  2
  8  9  2  0  0  2
  8 10  2  0  0  2
  8 11  1  0  0  2
 11 12  1  0  0  2
 12 13  4  0  0  1
 12 15  4  0  0  1
 13 14  4  0  0  1
 14 21  4  0  0  1
 15 16  4  0  0  1
 16 17  1  0  0  1
 16 21  4  0  0  1
 17 18  1  0  0  2
 17 23  2  0  0  1
 18 19  2  0  0  2
 18 20  2  0  0  2
 21 22  1  0  0  1
 22 23  1  0  0  1
 23 24  1  0  0  2
  3 25  1  0  0  2
  4 26  1  0  0  2
  5 27  1  0  0  2
  6 28  1  0  0  2
 11 29  1  0  0  2
 13 30  1  0  0  2
 14 31  1  0  0  2
 15 32  1  0  0  2
 24 33  1  0  0  2
 24 34  1  0  0  2
 24 35  1  0  0  2
M  END
> <MOLECULAR_FORMULA>
C16H11NO5SCl

> <MOLECULAR_WEIGHT>
364.7

> <NUM_HB_ATOMS>
5  

> <NUM_ROTOR>
1  

> <XLOGP2>
2.92 

$$$$
