### 
### Created by X-TOOL on Sun Nov 13 14:29:36 2016
### 

@<TRIPOS>MOLECULE
5c2h_ligand
   55    58     1     0     0
SMALL
GAST_HUCK


@<TRIPOS>ATOM
      1 C3          9.0710   38.3270   60.3690 C.ar      1 MOL         0.1186
      2 C7         10.5280   39.7400   59.0730 C.3       1 MOL         0.0628
      3 C9          8.3210   42.9120   58.5880 C.2       1 MOL         0.0778
      4 C11        10.0830   41.9070   57.7320 C.2       1 MOL        -0.0193
      5 C12        11.1720   41.8030   56.7370 C.3       1 MOL        -0.0413
      6 C13         7.2450   43.8960   58.8150 C.3       1 MOL         0.0016
      7 C15         4.7570   36.6770   56.8450 C.3       1 MOL        -0.0113
      8 C18         3.3980   34.8030   54.1400 C.ar      1 MOL        -0.0278
      9 C20         1.1210   35.2960   53.7410 C.ar      1 MOL         0.0021
     10 C21         1.0230   35.7910   55.0340 C.ar      1 MOL         0.0362
     11 C           7.4700   37.0910   61.5220 C.ar      1 MOL         0.1099
     12 N           6.6850   36.8940   60.4580 N.ar      1 MOL        -0.2547
     13 O           6.5830   37.3570   58.1300 O.3       1 MOL        -0.2852
     14 S           8.4460   41.5540   59.6200 S.3       1 MOL        -0.0120
     15 CL          6.8760   36.4220   62.9700 Cl        1 MOL        -0.0438
     16 C1          7.2050   37.4490   59.3620 C.ar      1 MOL         0.2197
     17 N2          8.3400   38.1370   59.2670 N.ar      1 MOL        -0.2408
     18 C4          8.6530   37.7920   61.5600 C.ar      1 MOL         0.0274
     19 N5         10.2720   39.0830   60.3440 N.pl3     1 MOL        -0.2975
     20 C6          9.4190   37.9580   62.8270 C.3       1 MOL        -0.0295
     21 C8          9.8170   41.0080   58.7430 C.2       1 MOL         0.0379
     22 N10         9.2360   42.9780   57.6480 N.2       1 MOL        -0.3328
     23 C14         5.4350   36.5230   58.1950 C.3       1 MOL         0.0794
     24 C16         4.4230   35.2990   56.3170 C.3       1 MOL         0.0008
     25 C17         3.2330   35.3180   55.4110 C.ar      1 MOL         0.0269
     26 C19         2.3210   34.7960   53.2850 C.ar      1 MOL        -0.0376
     27 N22         2.0710   35.8120   55.8720 N.ar      1 MOL        -0.3005
     28 C23         0.0410   35.2700   52.8950 C.ar      1 MOL        -0.0488
     29 C24        -1.1680   35.7760   53.3280 C.ar      1 MOL        -0.0581
     30 C25        -1.2780   36.3110   54.5900 C.ar      1 MOL        -0.0585
     31 C26        -0.1920   36.3010   55.4350 C.ar      1 MOL        -0.0435
     32 H1         10.2753   39.0173   58.2832 H         1 MOL         0.0656
     33 H2         11.6053   39.9595   59.0381 H         1 MOL         0.0656
     34 H3         11.1322   42.6677   56.0582 H         1 MOL         0.0328
     35 H4         11.0517   40.8759   56.1573 H         1 MOL         0.0328
     36 H5         12.1421   41.7881   57.2553 H         1 MOL         0.0328
     37 H6          7.3157   44.6965   58.0638 H         1 MOL         0.0468
     38 H7          7.3490   44.3275   59.8215 H         1 MOL         0.0468
     39 H8          6.2682   43.3976   58.7288 H         1 MOL         0.0468
     40 H9          5.4345   37.1884   56.1454 H         1 MOL         0.0318
     41 H10         3.8342   37.2650   56.9579 H         1 MOL         0.0318
     42 H11         4.3579   34.4119   53.8227 H         1 MOL         0.0661
     43 H12        10.9048   39.1591   61.1532 H         1 MOL         0.1845
     44 H13        10.3268   38.5479   62.6320 H         1 MOL         0.0361
     45 H14         9.7012   36.9690   63.2172 H         1 MOL         0.0361
     46 H15         8.7947   38.4798   63.5673 H         1 MOL         0.0361
     47 H16         5.7274   35.4760   58.3631 H         1 MOL         0.0626
     48 H17         4.7649   36.8509   59.0033 H         1 MOL         0.0626
     49 H18         4.2107   34.6348   57.1677 H         1 MOL         0.0471
     50 H19         5.2885   34.9137   55.7580 H         1 MOL         0.0471
     51 H20         2.4139   34.4068   52.2775 H         1 MOL         0.0764
     52 H21         0.1362   34.8566   51.8975 H         1 MOL         0.0649
     53 H22        -2.0313   35.7516   52.6728 H         1 MOL         0.0622
     54 H23        -2.2180   36.7396   54.9184 H         1 MOL         0.0645
     55 H24        -0.2948   36.7027   56.4366 H         1 MOL         0.0623
@<TRIPOS>BOND
     1   17    1 ar 
     2    1   18 ar 
     3    1   19 1  
     4   19    2 1  
     5    2   21 1  
     6    3    6 1  
     7   14    3 1  
     8    3   22 2  
     9    4    5 1  
    10   21    4 2  
    11    4   22 1  
    12    7   23 1  
    13   24    7 1  
    14   25    8 ar 
    15    8   26 ar 
    16    9   10 ar 
    17   26    9 ar 
    18    9   28 ar 
    19   10   27 ar 
    20   10   31 ar 
    21   12   11 ar 
    22   11   15 1  
    23   11   18 ar 
    24   16   12 ar 
    25   13   16 1  
    26   23   13 1  
    27   21   14 1  
    28   16   17 ar 
    29   18   20 1  
    30   24   25 1  
    31   25   27 ar 
    32   28   29 ar 
    33   29   30 ar 
    34   30   31 ar 
    35    2   32 1  
    36    2   33 1  
    37    5   34 1  
    38    5   35 1  
    39    5   36 1  
    40    6   37 1  
    41    6   38 1  
    42    6   39 1  
    43    7   40 1  
    44    7   41 1  
    45    8   42 1  
    46   19   43 1  
    47   20   44 1  
    48   20   45 1  
    49   20   46 1  
    50   23   47 1  
    51   23   48 1  
    52   24   49 1  
    53   24   50 1  
    54   26   51 1  
    55   28   52 1  
    56   29   53 1  
    57   30   54 1  
    58   31   55 1  
@<TRIPOS>SUBSTRUCTURE
     1 MOL         1

