REMARK  10 active torsions:
REMARK  status: ('A' for Active; 'I' for Inactive)
REMARK    1  A    between atoms: C12_1624  and  C13_1625 
REMARK    2  A    between atoms: C12_1624  and  C6_1637 
REMARK    3  A    between atoms: C12_1624  and  C14_1642 
REMARK    4  A    between atoms: C_1631  and  C28_1651 
REMARK       I    between atoms: C4_1635  and  N25_1648 
REMARK    5  A    between atoms: C4_1635  and  C6_1637 
REMARK    6  A    between atoms: C6_1637  and  N7_1638 
REMARK       I    between atoms: C8_1639  and  N7_1638 
REMARK    7  A    between atoms: C8_1639  and  O10_1641 
REMARK    8  A    between atoms: C26_1649  and  N25_1648 
REMARK    9  A    between atoms: C26_1649  and  C27_1650 
REMARK   10  A    between atoms: C27_1650  and  C28_1651 
ROOT
HETATM    1  C6  6EH A 101     -22.325  16.863  -4.433  1.00 21.56     0.196 C 
ENDROOT
BRANCH   1   2
HETATM    2  C12 6EH A 101     -21.644  17.059  -3.079  1.00 22.21     0.076 C 
BRANCH   2   3
HETATM    3  C13 6EH A 101     -20.646  18.175  -3.028  1.00 22.19    -0.016 A 
HETATM    4  C15 6EH A 101     -19.408  17.905  -2.481  1.00 22.39    -0.004 A 
HETATM    5  C16 6EH A 101     -18.440  18.881  -2.394  1.00 22.74    -0.000 A 
HETATM    6  C17 6EH A 101     -18.732  20.150  -2.839  1.00 21.85    -0.000 A 
HETATM    7  C18 6EH A 101     -19.975  20.439  -3.365  1.00 24.75    -0.000 A 
HETATM    8  C19 6EH A 101     -20.937  19.454  -3.468  1.00 21.41    -0.004 A 
ENDBRANCH   2   3
BRANCH   2   9
HETATM    9  C14 6EH A 101     -22.549  17.108  -1.881  1.00 23.40    -0.016 A 
HETATM   10  C20 6EH A 101     -23.617  17.984  -1.785  1.00 24.78    -0.004 A 
HETATM   11  C21 6EH A 101     -24.430  18.004  -0.664  1.00 21.83    -0.000 A 
HETATM   12  C22 6EH A 101     -24.158  17.143   0.375  1.00 25.09    -0.000 A 
HETATM   13  C23 6EH A 101     -23.086  16.273   0.294  1.00 26.55    -0.000 A 
HETATM   14  C24 6EH A 101     -22.281  16.247  -0.831  1.00 24.41    -0.004 A 
ENDBRANCH   2   9
ENDBRANCH   1   2
BRANCH   1  15
HETATM   15  C4  6EH A 101     -21.335  16.398  -5.463  1.00 21.61     0.275 C 
HETATM   16  N25 6EH A 101     -21.093  17.373  -6.416  1.00 23.98    -0.236 NA
HETATM   17  O5  6EH A 101     -20.828  15.282  -5.421  1.00 20.33    -0.268 OA
BRANCH  16  18
HETATM   18  C26 6EH A 101     -20.088  17.193  -7.451  1.00 26.29     0.129 C 
BRANCH  18  19
HETATM   19  C27 6EH A 101     -18.926  18.157  -7.340  1.00 27.83     0.029 C 
BRANCH  19  20
HETATM   20  C28 6EH A 101     -18.162  17.960  -6.048  1.00 28.66     0.034 C 
BRANCH  20  21
HETATM   21  C   6EH A 101     -16.687  18.208  -6.231  1.00 31.85     0.139 C 
HETATM   22  O   6EH A 101     -16.487  19.576  -6.621  1.00 34.33    -0.353 OA
HETATM   23  C1  6EH A 101     -15.098  19.779  -6.895  1.00 33.70     0.168 C 
HETATM   24  C2  6EH A 101     -14.383  19.777  -5.559  1.00 32.54     0.152 C 
HETATM   25  N   6EH A 101     -14.628  18.451  -4.916  1.00 32.49    -0.290 NA
HETATM   26  C3  6EH A 101     -16.042  17.984  -4.879  1.00 31.85     0.149 C 
ENDBRANCH  20  21
ENDBRANCH  19  20
ENDBRANCH  18  19
ENDBRANCH  16  18
ENDBRANCH   1  15
BRANCH   1  27
HETATM   27  N7  6EH A 101     -23.320  15.806  -4.402  1.00 22.28    -0.204 NA
HETATM   28  C8  6EH A 101     -24.657  16.092  -4.582  1.00 23.77     0.384 C 
HETATM   29  O9  6EH A 101     -25.112  17.205  -4.832  1.00 24.62    -0.236 OA
BRANCH  28  30
HETATM   30  O10 6EH A 101     -25.389  14.940  -4.464  1.00 24.39    -0.281 OA
HETATM   31  C11 6EH A 101     -26.794  15.127  -4.637  1.00 23.72     0.186 C 
ENDBRANCH  28  30
ENDBRANCH   1  27
TORSDOF 10
