@<TRIPOS>MOLECULE
RS1_1_830C
   48    50     0     0     0
SMALL
USER_CHARGES

@<TRIPOS>ATOM
      1 C1         -6.8690   25.8010   54.4830 C.ar      1 <0>        -0.0294
      2 C2         -7.2090   28.0220   53.5770 C.ar      1 <0>        -0.0294
      3 C3         -9.4490   26.3890   50.7850 C.ar      1 <0>        -0.0298
      4 C4         -7.2200   27.3250   50.5210 C.ar      1 <0>        -0.0298
      5 C5         -6.2710   26.3220   55.6000 C.ar      1 <0>        -0.0344
      6 C6         -6.6340   28.5470   54.7140 C.ar      1 <0>        -0.0344
      7 C7         -9.7960   26.8980   49.5520 C.ar      1 <0>        -0.0409
      8 C8         -7.5670   27.8520   49.3020 C.ar      1 <0>        -0.0409
      9 C9         -2.6850   27.4130   58.5200 C.3       1 <0>        -0.0138
     10 C10        -1.3990   28.8550   56.8740 C.3       1 <0>        -0.0138
     11 C11        -1.3450   26.8280   58.9610 C.3       1 <0>         0.0487
     12 C12        -0.1380   28.1300   57.3600 C.3       1 <0>         0.0487
     13 C13        -3.8780   28.9410   56.7980 C.3       1 <0>         0.0849
     14 C14        -7.3430   26.6340   53.4810 C.ar      1 <0>         0.0832
     15 C15        -8.1740   26.5880   51.2560 C.ar      1 <0>         0.0832
     16 C16        -6.1960   27.7030   55.7310 C.ar      1 <0>         0.0884
     17 C17        -8.8400   27.6210   48.8430 C.ar      1 <0>         0.0411
     18 C18        -2.6820   26.8850   55.9850 C.2       1 <0>         0.2433
     19 C19        -2.6760   27.9890   57.0640 C.3       1 <0>         0.0726
     20 N1         -2.7380   25.5740   56.2570 N.am      1 <0>        -0.1970
     21 O1         -2.5310   24.7710   55.1030 O.3       1 <0>        -0.2952
     22 O2         -2.5940   27.1550   54.7780 O.2       1 <0>        -0.2731
     23 O3         -5.5820   27.5070   58.3390 O.2       1 <0>        -0.1693
     24 O4         -6.2980   29.6010   57.3620 O.2       1 <0>        -0.1693
     25 O5         -0.3120   27.8030   58.7340 O.3       1 <0>        -0.3797
     26 O6         -7.9490   25.9670   52.4690 O.3       1 <0>        -0.3093
     27 S1         -5.5190   28.4130   57.2150 S.o2      1 <0>        -0.0021
     28 Cl1        -9.3060   28.2050   47.3000 Cl        1 <0>        -0.0835
     29 H1         -6.9723   24.7307   54.3819 H         1 <0>         0.0644
     30 H2         -7.5477   28.6671   52.7798 H         1 <0>         0.0644
     31 H3        -10.1701   25.8409   51.3732 H         1 <0>         0.0644
     32 H4         -6.2253   27.4729   50.9147 H         1 <0>         0.0644
     33 H5         -5.8665   25.6729   56.3625 H         1 <0>         0.0637
     34 H6         -6.5228   29.6164   54.8165 H         1 <0>         0.0637
     35 H7        -10.7843   26.7401   49.1460 H         1 <0>         0.0633
     36 H8         -6.8616   28.4295   48.7229 H         1 <0>         0.0633
     37 H9         -3.4376   26.6120   58.5647 H         1 <0>         0.0298
     38 H10        -2.9424   28.2314   59.2084 H         1 <0>         0.0298
     39 H11        -1.5150   29.7845   57.4508 H         1 <0>         0.0298
     40 H12        -1.2839   29.0824   55.8039 H         1 <0>         0.0298
     41 H13        -1.3861   26.5750   60.0307 H         1 <0>         0.0560
     42 H14        -1.1294   25.9189   58.3804 H         1 <0>         0.0560
     43 H15         0.0146   27.2118   56.7737 H         1 <0>         0.0560
     44 H16         0.7387   28.7834   57.2394 H         1 <0>         0.0560
     45 H17        -3.6876   29.8497   57.3880 H         1 <0>         0.0514
     46 H18        -3.8829   29.1357   55.7154 H         1 <0>         0.0514
     47 H19        -2.9066   25.2024   57.1699 H         1 <0>         0.1822
     48 H20        -2.4447   25.3295   54.3394 H         1 <0>         0.2414
@<TRIPOS>BOND
     1    1    5 ar
     2    1   14 ar
     3    2    6 ar
     4    2   14 ar
     5    3    7 ar
     6    3   15 ar
     7    4    8 ar
     8    4   15 ar
     9    5   16 ar
    10    6   16 ar
    11    7   17 ar
    12    8   17 ar
    13    9   11 1
    14    9   19 1
    15   10   12 1
    16   10   19 1
    17   11   25 1
    18   12   25 1
    19   13   19 1
    20   13   27 1
    21   14   26 1
    22   15   26 1
    23   16   27 1
    24   17   28 1
    25   18   19 1
    26   18   20 am
    27   18   22 2
    28   20   21 1
    29   23   27 2
    30   24   27 2
    31    1   29 1
    32    2   30 1
    33    3   31 1
    34    4   32 1
    35    5   33 1
    36    6   34 1
    37    7   35 1
    38    8   36 1
    39    9   37 1
    40    9   38 1
    41   10   39 1
    42   10   40 1
    43   11   41 1
    44   11   42 1
    45   12   43 1
    46   12   44 1
    47   13   45 1
    48   13   46 1
    49   20   47 1
    50   21   48 1
