@<TRIPOS>MOLECULE
11N_1_2ZEC
   51    54     0     0     0
SMALL
USER_CHARGES

@<TRIPOS>ATOM
      1 C1         30.7250   71.7440   82.7960 C.ar      1 <0>        -0.0617
      2 C2         29.4330   72.0110   83.3110 C.ar      1 <0>        -0.0612
      3 C3         31.5610   72.8150   82.3680 C.ar      1 <0>        -0.0612
      4 C4         28.9640   73.3450   83.4170 C.ar      1 <0>        -0.0546
      5 C5         31.0880   74.1560   82.4730 C.ar      1 <0>        -0.0546
      6 C6         19.7650   77.8290   83.6730 C.ar      1 <0>        -0.0511
      7 C7         20.1620   78.4560   84.9010 C.ar      1 <0>        -0.0310
      8 C8         22.1480   77.7190   82.9240 C.ar      1 <0>        -0.0473
      9 C9         24.5990   79.3840   83.4460 C.3       1 <0>        -0.0252
     10 C10        24.5900   77.4580   85.1150 C.3       1 <0>        -0.0252
     11 C11        26.1050   79.5550   83.7270 C.3       1 <0>         0.0158
     12 C12        26.0800   77.6780   85.4020 C.3       1 <0>         0.0158
     13 C13        23.5330   79.7380   85.7750 C.3       1 <0>         0.0640
     14 C14        20.3760   76.7790   81.3720 C.3       1 <0>        -0.0094
     15 C15        29.3110   75.8770   83.0800 C.2       1 <0>        -0.0497
     16 C16        28.2640   76.2490   83.8000 C.2       1 <0>         0.0009
     17 C17        29.8040   74.4230   82.9980 C.ar      1 <0>        -0.0249
     18 C18        20.7710   77.4480   82.6910 C.ar      1 <0>        -0.0026
     19 C19        21.5200   78.7230   85.1260 C.ar      1 <0>         0.0800
     20 C20        22.5320   78.3440   84.1080 C.ar      1 <0>        -0.0085
     21 C21        27.6540   77.6010   83.4070 C.2       1 <0>         0.2394
     22 C22        23.8730   78.7630   84.6760 C.3       1 <0>         0.0249
     23 N1         20.0340   77.8340   80.4360 N.4       1 <0>         0.2218
     24 N2         26.7090   78.3330   84.2530 N.am      1 <0>        -0.2979
     25 O1         28.0690   78.1310   82.4300 O.2       1 <0>        -0.2706
     26 O2         22.2380   79.3280   86.2520 O.3       1 <0>        -0.3435
     27 H1         31.0774   70.7254   82.7276 H         1 <0>         0.0618
     28 H2         28.8010   71.1935   83.6250 H         1 <0>         0.0618
     29 H3         32.5436   72.6132   81.9678 H         1 <0>         0.0618
     30 H4         27.9788   73.5452   83.8116 H         1 <0>         0.0623
     31 H5         31.7156   74.9731   82.1490 H         1 <0>         0.0623
     32 H6         18.7200   77.6395   83.4768 H         1 <0>         0.0623
     33 H7         19.4233   78.7193   85.6435 H         1 <0>         0.0643
     34 H8         22.8894   77.4424   82.1890 H         1 <0>         0.0626
     35 H9         24.1603   80.3695   83.2308 H         1 <0>         0.0290
     36 H10        24.4693   78.7187   82.5796 H         1 <0>         0.0290
     37 H11        24.4957   76.7187   84.3059 H         1 <0>         0.0290
     38 H12        24.1089   77.0868   86.0320 H         1 <0>         0.0290
     39 H13        26.6097   79.8187   82.7859 H         1 <0>         0.0465
     40 H14        26.2346   80.3575   84.4681 H         1 <0>         0.0465
     41 H15        26.1914   78.3143   86.2924 H         1 <0>         0.0465
     42 H16        26.5656   76.7074   85.5812 H         1 <0>         0.0465
     43 H17        24.2801   79.6983   86.5814 H         1 <0>         0.0574
     44 H18        23.5030   80.7685   85.3914 H         1 <0>         0.0574
     45 H19        21.2149   76.1836   80.9825 H         1 <0>         0.0866
     46 H20        19.5128   76.1150   81.5271 H         1 <0>         0.0866
     47 H21        29.8452   76.6323   82.5227 H         1 <0>         0.0625
     48 H22        27.8688   75.6458   84.6040 H         1 <0>         0.0670
     49 H23        19.7700   77.4304   79.5600 H         1 <0>         0.1997
     50 H24        19.2710   78.3681   80.8002 H         1 <0>         0.1997
     51 H25        20.8253   78.4308   80.3029 H         1 <0>         0.1997
@<TRIPOS>BOND
     1    1    2 ar
     2    1    3 ar
     3    2    4 ar
     4    3    5 ar
     5    4   17 ar
     6    5   17 ar
     7    6    7 ar
     8    6   18 ar
     9    7   19 ar
    10    8   18 ar
    11    8   20 ar
    12    9   11 1
    13    9   22 1
    14   10   12 1
    15   10   22 1
    16   11   24 1
    17   12   24 1
    18   13   22 1
    19   13   26 1
    20   14   18 1
    21   14   23 1
    22   15   16 2
    23   15   17 1
    24   16   21 1
    25   19   20 ar
    26   19   26 1
    27   20   22 1
    28   21   24 am
    29   21   25 2
    30    1   27 1
    31    2   28 1
    32    3   29 1
    33    4   30 1
    34    5   31 1
    35    6   32 1
    36    7   33 1
    37    8   34 1
    38    9   35 1
    39    9   36 1
    40   10   37 1
    41   10   38 1
    42   11   39 1
    43   11   40 1
    44   12   41 1
    45   12   42 1
    46   13   43 1
    47   13   44 1
    48   14   45 1
    49   14   46 1
    50   15   47 1
    51   16   48 1
    52   23   49 1
    53   23   50 1
    54   23   51 1
