REMARK  16 active torsions:
REMARK  status: ('A' for Active; 'I' for Inactive)
REMARK       I    between atoms: C_2369  and  N_2372 
REMARK    1  A    between atoms: N_2372  and  CA_2373 
REMARK    2  A    between atoms: CA_2373  and  CB_2376 
REMARK    3  A    between atoms: CA_2373  and  C_2374 
REMARK       I    between atoms: C_2374  and  N_2378 
REMARK    4  A    between atoms: N_2378  and  CA_2379 
REMARK    5  A    between atoms: CA_2379  and  C_2380 
REMARK       I    between atoms: C_2380  and  N_2383 
REMARK    6  A    between atoms: N_2383  and  CA_2384 
REMARK    7  A    between atoms: CA_2384  and  C_2385 
REMARK    8  A    between atoms: CA_2384  and  CB_2387 
REMARK       I    between atoms: C_2385  and  N_2390 
REMARK    9  A    between atoms: N_2390  and  CA_2391 
REMARK   10  A    between atoms: C_2392  and  CA_2391 
REMARK   11  A    between atoms: CA_2391  and  CB_2394 
REMARK       I    between atoms: C_2392  and  N_2398 
REMARK   12  A    between atoms: CB_2394  and  CG_2395 
REMARK   13  A    between atoms: CA_2399  and  N_2398 
REMARK   14  A    between atoms: C_2406  and  CA_2399 
REMARK   15  A    between atoms: CA_2399  and  CB_2400 
REMARK   16  A    between atoms: CB_2400  and  CG_2401 
ROOT
ATOM      1  C   VAL B   4     -23.672 -39.088   3.893  1.00 74.30     0.274 C 
ATOM      2  O   VAL B   4     -22.450 -39.100   3.989  1.00 73.41    -0.268 OA
ATOM      3  N   LEU B   5     -24.403 -40.179   4.093  1.00 73.67    -0.229 NA
ENDROOT
BRANCH   1   4
ATOM      4  CA  VAL B   4     -24.439 -37.811   3.529  1.00 75.18     0.186 C 
BRANCH   4   5
ATOM      5  CB  VAL B   4     -24.074 -37.280   2.071  1.00 75.32     0.032 C 
ATOM      6  CG1 VAL B   4     -24.059 -38.420   1.005  1.00 74.30     0.003 C 
ATOM      7  CG2 VAL B   4     -25.005 -36.115   1.637  1.00 75.28     0.003 C 
ENDBRANCH   4   5
BRANCH   4   8
ATOM      8  N   VAL B   4     -24.202 -36.814   4.577  1.00 76.98    -0.229 NA
ATOM      9  C   ALA B   3     -25.201 -36.195   5.209  1.00 78.61     0.274 C 
ATOM     10  O   ALA B   3     -26.397 -36.381   4.922  1.00 78.62    -0.268 OA
BRANCH   9  11
ATOM     11  CA  ALA B   3     -24.808 -35.190   6.317  1.00 79.67     0.186 C 
ATOM     12  CB  ALA B   3     -24.581 -35.893   7.630  1.00 79.53     0.037 C 
BRANCH  11  13
ATOM     13  N   ALA B   3     -25.858 -34.183   6.467  1.00 81.00    -0.229 NA
ATOM     14  C   SER B   2     -26.115 -33.301   5.508  1.00 81.87     0.277 C 
ATOM     15  O   SER B   2     -25.315 -33.049   4.590  1.00 81.77    -0.268 OA
BRANCH  14  16
ATOM     16  CA  SER B   2     -27.493 -32.621   5.599  1.00 82.67     0.219 C 
BRANCH  16  17
ATOM     17  N   SER B   2     -27.509 -31.268   5.011  1.00 83.01    -0.228 NA
HETATM   18  C   ACE B   1     -27.361 -30.134   5.714  1.00 83.13     0.252 C 
HETATM   19  O   ACE B   1     -27.258 -30.176   6.949  1.00 83.22    -0.271 OA
HETATM   20  CH3 ACE B   1     -27.535 -28.832   4.945  1.00 82.58     0.100 C 
ENDBRANCH  16  17
BRANCH  16  21
ATOM     21  CB  SER B   2     -28.557 -33.537   4.927  1.00 82.85     0.216 C 
ATOM     22  OG  SER B   2     -29.880 -33.267   5.376  1.00 83.73    -0.218 OA
ENDBRANCH  16  21
ENDBRANCH  14  16
ENDBRANCH  11  13
ENDBRANCH   9  11
ENDBRANCH   4   8
ENDBRANCH   1   4
BRANCH   3  23
ATOM     23  CA  LEU B   5     -23.773 -41.454   4.418  1.00 73.21     0.186 C 
BRANCH  23  24
ATOM     24  C   LEU B   5     -23.292 -42.157   3.151  1.00 72.96     0.274 C 
HETATM   25  N   HSV B   6     -21.976 -42.283   2.995  1.00 72.27    -0.230 NA
ATOM     26  O   LEU B   5     -24.102 -42.578   2.326  1.00 73.54    -0.268 OA
BRANCH  25  27
HETATM   27  CA  HSV B   6     -21.425 -42.916   1.794  1.00 71.63     0.176 C 
BRANCH  27  28
HETATM   28  C   HSV B   6     -21.685 -44.452   1.861  1.00 71.37     0.232 C 
HETATM   29  O   HSV B   6     -20.892 -45.290   1.427  1.00 70.15    -0.286 OA
ENDBRANCH  27  28
BRANCH  27  30
HETATM   30  CB  HSV B   6     -19.951 -42.533   1.608  1.00 71.04     0.080 C 
BRANCH  30  31
HETATM   31  CG  HSV B   6     -19.742 -41.106   1.192  1.00 71.05     0.082 A 
HETATM   32  CD2 HSV B   6     -20.329 -40.362   0.223  1.00 71.02     0.116 A 
HETATM   33  NE2 HSV B   6     -19.738 -39.122   0.248  1.00 70.21    -0.221 NA
HETATM   34  CE1 HSV B   6     -18.824 -39.103   1.199  1.00 69.36     0.199 A 
HETATM   35  ND1 HSV B   6     -18.811 -40.285   1.787  1.00 69.69    -0.227 NA
ENDBRANCH  30  31
ENDBRANCH  27  30
ENDBRANCH  25  27
ENDBRANCH  23  24
BRANCH  23  36
ATOM     36  CB  LEU B   5     -24.745 -42.354   5.183  1.00 73.05     0.034 C 
BRANCH  36  37
ATOM     37  CG  LEU B   5     -25.303 -41.789   6.491  1.00 73.14     0.002 C 
ATOM     38  CD1 LEU B   5     -26.144 -42.832   7.212  1.00 72.20     0.000 C 
ATOM     39  CD2 LEU B   5     -24.178 -41.290   7.385  1.00 69.60     0.000 C 
ENDBRANCH  36  37
ENDBRANCH  23  36
ENDBRANCH   3  23
TORSDOF 16
