@<TRIPOS>MOLECULE
ONO_501_2AYW
   70    72     0     0     0
SMALL
USER_CHARGES

@<TRIPOS>ATOM
      1 C1         20.9310   23.5680   22.8490 C.3       1 <0>        -0.0583
      2 C2         23.4720   23.0910   23.0790 C.3       1 <0>        -0.0583
      3 C3         22.5530   25.0140   21.7910 C.3       1 <0>        -0.0583
      4 C4         23.0550   16.7140   33.7920 C.3       1 <0>         0.0446
      5 C5         27.3560   15.4190   28.2430 C.ar      1 <0>        -0.0452
      6 C6         28.7260   17.1920   29.0640 C.ar      1 <0>        -0.0452
      7 C7         26.2310   16.0710   28.7190 C.ar      1 <0>        -0.0397
      8 C8         27.6030   17.8370   29.5360 C.ar      1 <0>        -0.0397
      9 C9         23.5460   23.8400   28.9340 C.ar      1 <0>        -0.0490
     10 C10        23.5040   22.9140   29.9670 C.ar      1 <0>        -0.0526
     11 C11        22.0510   20.8740   31.7680 C.ar      1 <0>        -0.0479
     12 C12        21.7710   19.9670   32.7790 C.ar      1 <0>        -0.0118
     13 C13        23.0520   22.0910   27.3530 C.ar      1 <0>        -0.0402
     14 C14        21.8960   26.4120   24.4290 C.3       1 <0>         0.0631
     15 C15        28.6190   15.9530   28.4400 C.ar      1 <0>         0.0611
     16 C16        26.3400   17.2780   29.3740 C.ar      1 <0>         0.0338
     17 C17        23.2440   23.4640   27.6700 C.ar      1 <0>         0.0373
     18 C18        23.1730   21.5890   29.7020 C.ar      1 <0>        -0.0068
     19 C19        23.1170   20.6570   30.8310 C.ar      1 <0>         0.0134
     20 C20        22.5530   18.8150   32.8220 C.ar      1 <0>         0.1683
     21 C21        22.9930   21.1680   28.3560 C.ar      1 <0>         0.0058
     22 C22        23.7890   19.5020   30.9210 C.ar      1 <0>         0.1362
     23 C23        22.4600   25.0380   24.3250 C.3       1 <0>         0.0513
     24 C24        29.8040   15.2420   27.9740 C.cat     1 <0>         0.2605
     25 C25        23.3300   24.3610   26.5770 C.2       1 <0>         0.2444
     26 C26        22.6340   19.7440   28.0080 C.2       1 <0>         0.0723
     27 C27        24.9670   19.1300   30.1870 C.2       1 <0>         0.2673
     28 C28        22.3640   24.1720   23.0430 C.3       1 <0>        -0.0172
     29 N1         29.7380   13.9670   27.6080 N.pl3     1 <0>        -0.3060
     30 N2         30.9750   15.8590   27.9120 N.pl3     1 <0>        -0.2158
     31 N3         23.5450   18.5860   31.9320 N.ar      1 <0>        -0.2182
     32 N4         25.1880   17.8330   29.9400 N.am      1 <0>        -0.2802
     33 N5         22.3740   24.2560   25.5980 N.am      1 <0>        -0.3058
     34 O1         22.6270   27.2990   25.3110 O.3       1 <0>        -0.3932
     35 O2         21.7130   19.2040   28.6340 O.co2     1 <0>        -0.5446
     36 O3         24.2540   25.1620   26.7670 O.2       1 <0>        -0.2702
     37 O4         23.2420   19.2010   27.0860 O.co2     1 <0>        -0.5446
     38 O5         25.7780   19.9250   29.9610 O.2       1 <0>        -0.2682
     39 O6         22.2500   17.9000   33.7720 O.3       1 <0>        -0.3315
     40 H1         20.1894   24.3803   22.8314 H         1 <0>         0.0235
     41 H2         20.8918   23.0154   21.8987 H         1 <0>         0.0235
     42 H3         20.7059   22.8841   23.6806 H         1 <0>         0.0235
     43 H4         24.4511   23.5732   23.2167 H         1 <0>         0.0235
     44 H5         23.2831   22.4002   23.9139 H         1 <0>         0.0235
     45 H6         23.4690   22.5314   22.1320 H         1 <0>         0.0235
     46 H7         23.5420   25.4948   21.8177 H         1 <0>         0.0235
     47 H8         22.4825   24.3699   20.9021 H         1 <0>         0.0235
     48 H9         21.7710   25.7864   21.7473 H         1 <0>         0.0235
     49 H10        22.7141   16.0525   34.6020 H         1 <0>         0.0529
     50 H11        22.9619   16.1916   32.8285 H         1 <0>         0.0529
     51 H12        24.1069   16.9879   33.9606 H         1 <0>         0.0529
     52 H13        27.2477   14.4844   27.7126 H         1 <0>         0.0627
     53 H14        29.6964   17.6519   29.1794 H         1 <0>         0.0627
     54 H15        25.2566   15.6281   28.5751 H         1 <0>         0.0636
     55 H16        27.7052   18.7879   30.0377 H         1 <0>         0.0636
     56 H17        23.8206   24.8640   29.1399 H         1 <0>         0.0625
     57 H18        23.7285   23.2223   30.9774 H         1 <0>         0.0624
     58 H19        21.4509   21.7679   31.6832 H         1 <0>         0.0626
     59 H20        20.9850   20.1451   33.4979 H         1 <0>         0.0660
     60 H21        22.9534   21.7805   26.3233 H         1 <0>         0.0632
     61 H22        21.9050   26.8561   23.4227 H         1 <0>         0.0576
     62 H23        20.8694   26.3257   24.8145 H         1 <0>         0.0576
     63 H24        23.4919   25.3661   24.1314 H         1 <0>         0.0526
     64 H25        30.5611   13.4936   27.2942 H         1 <0>         0.1477
     65 H26        28.8652   13.4804   27.6462 H         1 <0>         0.1477
     66 H27        31.7844   15.3648   27.5948 H         1 <0>         0.4359
     67 H28        31.0493   16.8189   28.1824 H         1 <0>         0.4359
     68 H29        24.4559   17.1973   30.1848 H         1 <0>         0.1552
     69 H30        21.5989   23.6402   25.7391 H         1 <0>         0.1494
     70 H31        22.2070   28.1510   25.3232 H         1 <0>         0.2095
@<TRIPOS>BOND
     1    1   28 1
     2    2   28 1
     3    3   28 1
     4    4   39 1
     5    5    7 ar
     6    5   15 ar
     7    6    8 ar
     8    6   15 ar
     9    7   16 ar
    10    8   16 ar
    11    9   10 ar
    12    9   17 ar
    13   10   18 ar
    14   11   12 ar
    15   11   19 ar
    16   12   20 ar
    17   13   17 ar
    18   13   21 ar
    19   14   23 1
    20   14   34 1
    21   15   24 1
    22   16   32 1
    23   17   25 1
    24   18   19 1
    25   18   21 ar
    26   19   22 ar
    27   20   31 ar
    28   20   39 1
    29   21   26 1
    30   22   27 1
    31   22   31 ar
    32   23   28 1
    33   23   33 1
    34   24   29 1
    35   24   30 2
    36   25   33 am
    37   25   36 2
    38   26   35 1
    39   26   37 2
    40   27   32 am
    41   27   38 2
    42    1   40 1
    43    1   41 1
    44    1   42 1
    45    2   43 1
    46    2   44 1
    47    2   45 1
    48    3   46 1
    49    3   47 1
    50    3   48 1
    51    4   49 1
    52    4   50 1
    53    4   51 1
    54    5   52 1
    55    6   53 1
    56    7   54 1
    57    8   55 1
    58    9   56 1
    59   10   57 1
    60   11   58 1
    61   12   59 1
    62   13   60 1
    63   14   61 1
    64   14   62 1
    65   23   63 1
    66   29   64 1
    67   29   65 1
    68   30   66 1
    69   30   67 1
    70   32   68 1
    71   33   69 1
    72   34   70 1
