4mk8_ligand

Created by X-TOOL on Fri Nov 18 17:36:40 2016
 62 64  0  0  0  0  0  0  0  0999 V2000
  -51.1180   -8.9210  -13.5710  C 0  0  0  2  0  3
  -50.0030   -9.4860  -12.9490  C 0  0  0  1  0  3
  -49.9720   -9.4410  -11.5230  C 0  0  0  1  0  3
  -50.9900   -8.8280  -10.7750  C 0  0  0  1  0  3
  -52.0670   -8.2690  -11.4590  C 0  0  0  2  0  3
  -52.1380   -8.3100  -12.8500  C 0  0  0  1  0  3
  -53.3100   -7.7320  -13.5600  C 0  0  0  1  0  3
  -53.9260   -8.4060  -14.5930  C 0  0  0  2  0  3
  -55.0130   -7.8350  -15.3080  C 0  0  0  2  0  3
  -55.4490   -6.6020  -14.9540  C 0  0  0  2  0  3
  -54.8720   -5.9320  -13.9190  N 0  0  0  2  0  3
  -53.7900   -6.4120  -13.1550  C 0  0  0  1  0  3
  -53.3310   -5.7360  -12.2300  O 0  0  0  1  0  1
  -50.9460   -8.7070   -9.2570  C 0  0  0  3  0  4
  -52.1880   -9.3810   -8.5810  C 0  0  0  3  0  4
  -52.1880   -9.3100   -7.0750  C 0  0  0  1  0  3
  -51.6440  -10.3380   -6.3130  C 0  0  0  2  0  3
  -51.7550  -10.3420   -4.9340  C 0  0  0  2  0  3
  -52.4170   -9.3060   -4.2840  C 0  0  0  1  0  3
  -52.9330   -8.2570   -5.0370  C 0  0  0  2  0  3
  -52.8170   -8.2650   -6.4160  C 0  0  0  2  0  3
  -52.5950   -9.3740   -2.8700  N 0  0  0  2  0  3
  -53.1620   -8.2170   -1.8810  S 0  0  0  1  0  4
  -52.8860   -8.6590   -0.5490  O 0  0  0  1  0  1
  -52.6110   -6.9700   -2.3180  O 0  0  0  1  0  1
  -54.8970   -8.1750   -2.0950  C 0  0  0  4  0  4
  -48.8600   -9.9330  -10.8620  O 0  0  0  1  0  2
  -49.0120  -11.1810  -10.1850  C 0  0  0  4  0  4
  -48.8270   -9.9340  -13.8610  C 0  0  0  1  0  4
  -49.1930   -9.8630  -15.3550  C 0  0  0  4  0  4
  -47.6010   -9.0160  -13.6650  C 0  0  0  4  0  4
  -48.4030  -11.3850  -13.5980  C 0  0  0  4  0  4
  -51.1910   -8.9599  -14.6518  H 0  0  0  1  0  1
  -52.8642   -7.7935  -10.8991  H 0  0  0  1  0  1
  -53.5714   -9.3985  -14.8671  H 0  0  0  1  0  1
  -55.4865   -8.3779  -16.1247  H 0  0  0  1  0  1
  -56.2694   -6.1423  -15.5031  H 0  0  0  1  0  1
  -55.2432   -5.0337  -13.6838  H 0  0  0  1  0  1
  -50.9282   -7.6412   -8.9856  H 0  0  0  1  0  1
  -50.0318   -9.1948   -8.8877  H 0  0  0  1  0  1
  -52.2085  -10.4405   -8.8761  H 0  0  0  1  0  1
  -53.0953   -8.8801   -8.9497  H 0  0  0  1  0  1
  -51.1240  -11.1502   -6.8079  H 0  0  0  1  0  1
  -51.3251  -11.1542   -4.3590  H 0  0  0  1  0  1
  -53.4282   -7.4296   -4.5418  H 0  0  0  1  0  1
  -53.2246   -7.4408   -6.9902  H 0  0  0  1  0  1
  -52.3400  -10.2379   -2.4356  H 0  0  0  1  0  1
  -55.3284   -7.4020   -1.4419  H 0  0  0  1  0  1
  -55.3225   -9.1551   -1.8336  H 0  0  0  1  0  1
  -55.1315   -7.9414   -3.1440  H 0  0  0  1  0  1
  -48.0612  -11.4559   -9.7049  H 0  0  0  1  0  1
  -49.2953  -11.9589  -10.9092  H 0  0  0  1  0  1
  -49.7964  -11.0896   -9.4193  H 0  0  0  1  0  1
  -48.3331  -10.1882  -15.9590  H 0  0  0  1  0  1
  -49.4563   -8.8282  -15.6193  H 0  0  0  1  0  1
  -50.0510  -10.5220  -15.5541  H 0  0  0  1  0  1
  -47.2971   -9.0309  -12.6079  H 0  0  0  1  0  1
  -47.8621   -7.9881  -13.9570  H 0  0  0  1  0  1
  -46.7703   -9.3750  -14.2904  H 0  0  0  1  0  1
  -49.2683  -12.0503  -13.7344  H 0  0  0  1  0  1
  -48.0289  -11.4767  -12.5677  H 0  0  0  1  0  1
  -47.6079  -11.6683  -14.3034  H 0  0  0  1  0  1
  1  2  4  0  0  1
  1  6  4  0  0  1
  2  3  4  0  0  1
  2 29  1  0  0  2
  3  4  4  0  0  1
  3 27  1  0  0  2
  4  5  4  0  0  1
  4 14  1  0  0  2
  5  6  4  0  0  1
  6  7  1  0  0  2
  7  8  2  0  0  1
  7 12  1  0  0  1
  8  9  1  0  0  1
  9 10  2  0  0  1
 10 11  1  0  0  1
 11 12  1  0  0  1
 12 13  2  0  0  2
 14 15  1  0  0  2
 15 16  1  0  0  2
 16 17  4  0  0  1
 16 21  4  0  0  1
 17 18  4  0  0  1
 18 19  4  0  0  1
 19 20  4  0  0  1
 19 22  1  0  0  2
 20 21  4  0  0  1
 22 23  1  0  0  2
 23 24  2  0  0  2
 23 25  2  0  0  2
 23 26  1  0  0  2
 27 28  1  0  0  2
 29 30  1  0  0  2
 29 31  1  0  0  2
 29 32  1  0  0  2
  1 33  1  0  0  2
  5 34  1  0  0  2
  8 35  1  0  0  2
  9 36  1  0  0  2
 10 37  1  0  0  2
 11 38  1  0  0  2
 14 39  1  0  0  2
 14 40  1  0  0  2
 15 41  1  0  0  2
 15 42  1  0  0  2
 17 43  1  0  0  2
 18 44  1  0  0  2
 20 45  1  0  0  2
 21 46  1  0  0  2
 22 47  1  0  0  2
 26 48  1  0  0  2
 26 49  1  0  0  2
 26 50  1  0  0  2
 28 51  1  0  0  2
 28 52  1  0  0  2
 28 53  1  0  0  2
 30 54  1  0  0  2
 30 55  1  0  0  2
 30 56  1  0  0  2
 31 57  1  0  0  2
 31 58  1  0  0  2
 31 59  1  0  0  2
 32 60  1  0  0  2
 32 61  1  0  0  2
 32 62  1  0  0  2
M  END
> <MOLECULAR_FORMULA>
C25H30N2O4S

> <MOLECULAR_WEIGHT>
454.3

> <NUM_HB_ATOMS>
6  

> <NUM_ROTOR>
4  

> <XLOGP2>
4.23 

$$$$
