4ght_ligand

Created by X-TOOL on Fri Nov 18 17:35:59 2016
 84 86  0  0  0  0  0  0  0  0999 V2000
   10.6610   -7.3660   -0.0600  C 0  0  0  1  0  3
    9.3640   -6.6440   -0.3770  C 0  0  0  3  0  4
   11.0820   -8.2520   -0.7970  O 0  0  0  1  0  1
    8.7620   -7.0080   -1.7410  C 0  0  0  2  0  4
    7.6540   -6.0240   -2.0550  C 0  0  0  3  0  4
    6.5050   -6.0550   -1.0350  C 0  0  0  1  0  3
    5.7350   -7.1750   -0.7880  C 0  0  0  2  0  3
    4.6640   -7.1640    0.1550  C 0  0  0  2  0  3
    4.3690   -5.9860    0.8550  C 0  0  0  1  0  3
    5.1330   -4.8560    0.5940  C 0  0  0  2  0  3
    6.1900   -4.8960   -0.3240  C 0  0  0  2  0  3
    9.7740   -7.9030   -3.7120  N 0  0  0  2  0  3
   10.6070   -7.9090   -4.9220  C 0  0  0  2  0  4
   11.6590   -9.0330   -4.8980  C 0  0  0  3  0  4
   12.6860   -8.7800   -3.8100  C 0  0  0  2  0  4
   13.8920   -9.7150   -3.8720  C 0  0  0  1  0  3
   14.8760   -9.1350   -3.3660  N 0  0  0  2  0  3
   13.8910  -10.8320   -4.3590  O 0  0  0  1  0  1
    9.6410   -8.0320   -6.1170  C 0  0  0  3  0  4
    8.7660   -6.7830   -6.2190  C 0  0  0  3  0  4
    9.5900   -5.5740   -6.6540  C 0  0  0  1  0  3
    9.3050   -4.3110   -6.0810  O 0  0  0  1  0  2
   10.4900   -5.6700   -7.4650  O 0  0  0  1  0  1
    9.7250   -6.9090   -2.8990  C 0  0  0  1  0  3
   10.3650   -5.8730   -3.0020  O 0  0  0  1  0  1
   10.1700   -3.1860   -6.2350  C 0  0  0  3  0  4
   10.9110   -2.9540   -4.9330  C 0  0  0  4  0  4
   11.3980   -6.9180    1.2100  C 0  0  0  2  0  4
   11.9510   -8.0800    1.8990  N 0  0  0  2  0  3
   11.5110   -8.4350    3.0970  C 0  0  0  1  0  3
   10.6730   -7.7950    3.7410  O 0  0  0  1  0  1
   12.5900   -5.9510    1.0540  C 0  0  0  2  0  4
   12.3960   -4.8870   -0.0090  C 0  0  0  4  0  4
    3.3340   -5.8910    1.7470  F 0  0  0  1  0  1
   12.9200   -5.2880    2.4000  C 0  0  0  4  0  4
   14.7430   -7.6810   -3.2210  C 0  0  0  3  0  4
   13.3330   -7.3930   -3.7750  C 0  0  0  3  0  4
   12.2030   -9.6230    3.6520  C 0  0  0  1  0  3
   11.9600  -10.2490    4.8780  C 0  0  0  2  0  3
   12.9060  -11.2470    4.9170  C 0  0  0  1  0  3
   13.6630  -11.2440    3.7980  O 0  0  0  1  0  2
   13.2490  -10.2350    3.0010  N 0  0  0  1  0  2
   13.0850  -12.2390    6.0350  C 0  0  0  4  0  4
    9.5588   -5.5615   -0.3631  H 0  0  0  1  0  1
    8.6296   -6.8945    0.4027  H 0  0  0  1  0  1
    8.3638   -8.0320   -1.6875  H 0  0  0  1  0  1
    7.2456   -6.2635   -3.0479  H 0  0  0  1  0  1
    8.0810   -5.0104   -2.0688  H 0  0  0  1  0  1
    5.9510   -8.0903   -1.3271  H 0  0  0  1  0  1
    4.0818   -8.0617    0.3290  H 0  0  0  1  0  1
    4.9078   -3.9289    1.1086  H 0  0  0  1  0  1
    6.7802   -4.0015   -0.4869  H 0  0  0  1  0  1
    9.2190   -8.7103   -3.5116  H 0  0  0  1  0  1
   11.1413   -6.9501   -4.9929  H 0  0  0  1  0  1
   12.1674   -9.0733   -5.8726  H 0  0  0  1  0  1
   11.1579   -9.9932   -4.7058  H 0  0  0  1  0  1
   12.1632   -8.9382   -2.8552  H 0  0  0  1  0  1
   15.6977   -9.6277   -3.0795  H 0  0  0  1  0  1
    8.9996   -8.9145   -5.9764  H 0  0  0  1  0  1
   10.2223   -8.1451   -7.0440  H 0  0  0  1  0  1
    8.3161   -6.5774   -5.2365  H 0  0  0  1  0  1
    7.9699   -6.9604   -6.9570  H 0  0  0  1  0  1
    9.5757   -2.2949   -6.4853  H 0  0  0  1  0  1
   10.8924   -3.3833   -7.0408  H 0  0  0  1  0  1
   11.5808   -2.0883   -5.0416  H 0  0  0  1  0  1
   11.5033   -3.8469   -4.6840  H 0  0  0  1  0  1
   10.1866   -2.7585   -4.1286  H 0  0  0  1  0  1
   10.6523   -6.4302    1.8550  H 0  0  0  1  0  1
   12.6724   -8.6158    1.4603  H 0  0  0  1  0  1
   13.4581   -6.5557    0.7527  H 0  0  0  1  0  1
   13.2883   -4.2453   -0.0526  H 0  0  0  1  0  1
   11.5164   -4.2754    0.2406  H 0  0  0  1  0  1
   12.2426   -5.3685   -0.9861  H 0  0  0  1  0  1
   13.0595   -6.0644    3.1667  H 0  0  0  1  0  1
   12.0928   -4.6258    2.6952  H 0  0  0  1  0  1
   13.8440   -4.6992    2.3020  H 0  0  0  1  0  1
   15.5110   -7.1552   -3.8073  H 0  0  0  1  0  1
   14.8194   -7.3823   -2.1651  H 0  0  0  1  0  1
   12.7781   -6.7147   -3.1102  H 0  0  0  1  0  1
   13.3861   -6.9561   -4.7831  H 0  0  0  1  0  1
   11.2039  -10.0053    5.6229  H 0  0  0  1  0  1
   13.9168  -12.9172    5.7937  H 0  0  0  1  0  1
   12.1607  -12.8222    6.1593  H 0  0  0  1  0  1
   13.3085  -11.7026    6.9689  H 0  0  0  1  0  1
  2  1  1  0  0  2
  1  3  2  0  0  2
  1 28  1  0  0  2
  4  2  1  0  0  2
  4  5  1  0  0  2
 24  4  1  0  0  2
  5  6  1  0  0  2
  6  7  4  0  0  1
  6 11  4  0  0  1
  7  8  4  0  0  1
  8  9  4  0  0  1
 10  9  4  0  0  1
  9 34  1  0  0  2
 11 10  4  0  0  1
 12 13  1  0  0  2
 12 24  1  0  0  2
 13 14  1  0  0  2
 13 19  1  0  0  2
 14 15  1  0  0  2
 15 16  1  0  0  1
 15 37  1  0  0  1
 16 17  1  0  0  1
 16 18  2  0  0  2
 17 36  1  0  0  1
 19 20  1  0  0  2
 20 21  1  0  0  2
 21 22  1  0  0  2
 21 23  2  0  0  2
 22 26  1  0  0  2
 24 25  2  0  0  2
 26 27  1  0  0  2
 28 29  1  0  0  2
 28 32  1  0  0  2
 29 30  1  0  0  2
 30 31  2  0  0  2
 30 38  1  0  0  2
 32 33  1  0  0  2
 32 35  1  0  0  2
 36 37  1  0  0  1
 38 39  1  0  0  1
 38 42  2  0  0  1
 39 40  2  0  0  1
 40 41  1  0  0  1
 40 43  1  0  0  2
 41 42  1  0  0  1
  2 44  1  0  0  2
  2 45  1  0  0  2
  4 46  1  0  0  2
  5 47  1  0  0  2
  5 48  1  0  0  2
  7 49  1  0  0  2
  8 50  1  0  0  2
 10 51  1  0  0  2
 11 52  1  0  0  2
 12 53  1  0  0  2
 13 54  1  0  0  2
 14 55  1  0  0  2
 14 56  1  0  0  2
 15 57  1  0  0  2
 17 58  1  0  0  2
 19 59  1  0  0  2
 19 60  1  0  0  2
 20 61  1  0  0  2
 20 62  1  0  0  2
 26 63  1  0  0  2
 26 64  1  0  0  2
 27 65  1  0  0  2
 27 66  1  0  0  2
 27 67  1  0  0  2
 28 68  1  0  0  2
 29 69  1  0  0  2
 32 70  1  0  0  2
 33 71  1  0  0  2
 33 72  1  0  0  2
 33 73  1  0  0  2
 35 74  1  0  0  2
 35 75  1  0  0  2
 35 76  1  0  0  2
 36 77  1  0  0  2
 36 78  1  0  0  2
 37 79  1  0  0  2
 37 80  1  0  0  2
 39 81  1  0  0  2
 43 82  1  0  0  2
 43 83  1  0  0  2
 43 84  1  0  0  2
M  END
> <MOLECULAR_FORMULA>
C31H41N4O7F

> <MOLECULAR_WEIGHT>
600.4

> <NUM_HB_ATOMS>
10 

> <NUM_ROTOR>
16 

> <XLOGP2>
2.21 

$$$$
