REMARK  7 active torsions:
REMARK  status: ('A' for Active; 'I' for Inactive)
REMARK       I    between atoms: C02_2389  and  N03_2390 
REMARK    1  A    between atoms: C02_2389  and  C25_2412 
REMARK    2  A    between atoms: C04_2391  and  N03_2390 
REMARK    3  A    between atoms: C19_2406  and  N03_2390 
REMARK    4  A    between atoms: C07_2394  and  N08_2395 
REMARK       I    between atoms: C09_2396  and  N08_2395 
REMARK    5  A    between atoms: C09_2396  and  C10_2397 
REMARK    6  A    between atoms: C19_2406  and  C20_2407 
REMARK    7  A    between atoms: C25_2412  and  N26_2413 
ROOT
HETATM    1  O01 RFM A 401      -7.243 -21.380  29.162  1.00 29.89    -0.270 OA
HETATM    2  C02 RFM A 401      -7.172 -22.247  28.289  1.00 29.09     0.262 C 
HETATM    3  N03 RFM A 401      -5.934 -22.952  28.078  1.00 27.32    -0.298 N 
ENDROOT
BRANCH   3   4
HETATM    4  C04 RFM A 401      -5.889 -23.987  27.056  1.00 25.19     0.062 A 
HETATM    5  C05 RFM A 401      -6.111 -25.284  27.467  1.00 28.20     0.019 A 
HETATM    6  C06 RFM A 401      -6.066 -26.334  26.530  1.00 26.34     0.021 A 
HETATM    7  C07 RFM A 401      -5.827 -26.058  25.223  1.00 28.82     0.085 A 
HETATM    8  C17 RFM A 401      -5.586 -24.742  24.809  1.00 23.60     0.021 A 
HETATM    9  C18 RFM A 401      -5.624 -23.700  25.734  1.00 24.68     0.019 A 
BRANCH   7  10
HETATM   10  N08 RFM A 401      -5.738 -27.100  24.274  1.00 24.97    -0.208 NA
HETATM   11  C09 RFM A 401      -6.485 -28.332  24.274  1.00 32.36     0.279 C 
HETATM   12  O16 RFM A 401      -7.350 -28.607  25.117  1.00 35.30    -0.265 OA
BRANCH  11  13
HETATM   13  C10 RFM A 401      -6.156 -29.307  23.145  1.00 29.22     0.058 A 
HETATM   14  C11 RFM A 401      -4.874 -29.263  22.612  1.00 26.04     0.005 A 
HETATM   15  C12 RFM A 401      -4.515 -30.151  21.547  1.00 30.17     0.000 A 
HETATM   16  C13 RFM A 401      -5.466 -31.062  21.058  1.00 37.16     0.000 A 
HETATM   17  C14 RFM A 401      -6.759 -31.105  21.598  1.00 34.15     0.000 A 
HETATM   18  C15 RFM A 401      -7.119 -30.218  22.661  1.00 29.10     0.005 A 
ENDBRANCH  11  13
ENDBRANCH   7  10
ENDBRANCH   3   4
BRANCH   3  19
HETATM   19  C19 RFM A 401      -4.746 -22.662  28.860  1.00 26.56     0.110 C 
BRANCH  19  20
HETATM   20  C20 RFM A 401      -3.610 -22.458  27.853  1.00 26.59     0.034 A 
HETATM   21  C21 RFM A 401      -2.576 -23.445  27.516  1.00 27.85     0.059 A 
HETATM   22  S22 RFM A 401      -1.602 -22.857  26.385  1.00 32.24    -0.140 SA
HETATM   23  C23 RFM A 401      -2.252 -21.385  26.148  1.00 16.57     0.058 A 
HETATM   24  C24 RFM A 401      -3.405 -21.212  27.004  1.00 19.30     0.015 A 
ENDBRANCH  19  20
ENDBRANCH   3  19
BRANCH   2  25
HETATM   25  C25 RFM A 401      -8.367 -22.610  27.409  1.00 25.21     0.211 C 
BRANCH  25  26
HETATM   26  N26 RFM A 401      -9.558 -21.935  27.803  1.00 27.24    -0.245 N 
HETATM   27  C27 RFM A 401     -10.520 -22.496  28.623  1.00 29.16     0.093 A 
HETATM   28  C28 RFM A 401     -10.624 -23.756  29.277  1.00 28.48     0.020 A 
HETATM   29  C32 RFM A 401     -11.529 -21.544  28.757  1.00 20.07     0.115 A 
HETATM   30  C29 RFM A 401     -11.749 -24.023  30.061  1.00 29.09     0.002 A 
HETATM   31  C30 RFM A 401     -12.769 -23.066  30.198  1.00 23.56     0.002 A 
HETATM   32  C31 RFM A 401     -12.658 -21.824  29.547  1.00 23.40     0.022 A 
HETATM   33  N33 RFM A 401     -11.121 -20.431  28.002  1.00 21.39    -0.157 NA
HETATM   34  N34 RFM A 401      -9.943 -20.690  27.440  1.00 24.11     0.007 NA
ENDBRANCH  25  26
ENDBRANCH   2  25
TORSDOF 7
