REMARK  11 active torsions:
REMARK  status: ('A' for Active; 'I' for Inactive)
REMARK    1  A    between atoms: O3_1252  and  PA_1230 
REMARK    2  A    between atoms: O5B_1233  and  PA_1230 
REMARK    3  A    between atoms: C5B_1234  and  O5B_1233 
REMARK    4  A    between atoms: C4B_1235  and  C5B_1234 
REMARK    5  A    between atoms: C1B_1241  and  N9A_1242 
REMARK    6  A    between atoms: O3_1252  and  PN_1253 
REMARK    7  A    between atoms: O5D_1256  and  PN_1253 
REMARK    8  A    between atoms: C5D_1257  and  O5D_1256 
REMARK    9  A    between atoms: C4D_1258  and  C5D_1257 
REMARK   10  A    between atoms: C1D_1264  and  N1N_1265 
REMARK   11  A    between atoms: C3N_1267  and  C7N_1268 
ROOT
HETATM    1  PA  NAD A 201     -11.105   6.758  -9.934  1.00 15.04     0.418 P 
HETATM    2  O1A NAD A 201     -11.171   6.407 -11.379  1.00 14.94    -0.624 OA
HETATM    3  O2A NAD A 201     -11.933   7.958  -9.516  1.00 18.99    -0.624 OA
ENDROOT
BRANCH   1   4
HETATM    4  O3  NAD A 201     -11.490   5.403  -9.100  1.00 11.82    -0.180 OA
BRANCH   4   5
HETATM    5  PN  NAD A 201     -12.283   5.236  -7.638  1.00 14.20     0.418 P 
HETATM    6  O1N NAD A 201     -11.774   6.177  -6.567  1.00 15.59    -0.624 OA
HETATM    7  O2N NAD A 201     -12.100   3.800  -7.267  1.00 11.67    -0.624 OA
BRANCH   5   8
HETATM    8  O5D NAD A 201     -13.842   5.539  -7.990  1.00 17.06    -0.268 OA
BRANCH   8   9
HETATM    9  C5D NAD A 201     -14.418   4.672  -8.954  1.00 19.91     0.187 C 
BRANCH   9  10
HETATM   10  C4D NAD A 201     -15.900   5.031  -9.221  1.00 23.96     0.181 C 
HETATM   11  C3D NAD A 201     -16.327   4.604 -10.651  1.00 27.82     0.216 C 
HETATM   12  C2D NAD A 201     -16.379   5.927 -11.459  1.00 28.44     0.234 C 
HETATM   13  O3D NAD A 201     -17.547   4.048 -10.612  1.00 31.96    -0.218 OA
HETATM   14  C1D NAD A 201     -16.766   6.789 -10.546  1.00 28.96     0.239 C 
HETATM   15  O2D NAD A 201     -17.424   5.806 -12.550  1.00 28.43    -0.216 OA
HETATM   16  O4D NAD A 201     -16.022   6.335  -9.179  1.00 27.91    -0.331 OA
BRANCH  14  17
HETATM   17  N1N NAD A 201     -16.394   8.114 -10.877  1.00 34.56    -0.301 N 
HETATM   18  C2N NAD A 201     -17.364   8.985 -11.342  1.00 35.11     0.082 A 
HETATM   19  C3N NAD A 201     -17.019  10.307 -11.669  1.00 38.94     0.070 A 
HETATM   20  C4N NAD A 201     -15.728  10.747 -11.530  1.00 37.31     0.007 A 
HETATM   21  C5N NAD A 201     -14.762   9.873 -11.066  1.00 35.52     0.019 A 
HETATM   22  C6N NAD A 201     -15.109   8.539 -10.732  1.00 38.37     0.078 A 
BRANCH  19  23
HETATM   23  C7N NAD A 201     -18.095  11.230 -12.184  1.00 48.64     0.268 C 
HETATM   24  O7N NAD A 201     -19.219  10.858 -12.210  1.00 50.55    -0.271 OA
HETATM   25  N7N NAD A 201     -17.738  12.601 -12.675  1.00 56.15    -0.057 NA
ENDBRANCH  19  23
ENDBRANCH  14  17
ENDBRANCH   9  10
ENDBRANCH   8   9
ENDBRANCH   5   8
ENDBRANCH   4   5
ENDBRANCH   1   4
BRANCH   1  26
HETATM   26  O5B NAD A 201      -9.544   7.027  -9.496  1.00 16.44    -0.268 OA
BRANCH  26  27
HETATM   27  C5B NAD A 201      -8.694   5.905  -9.325  1.00 12.86     0.187 C 
BRANCH  27  28
HETATM   28  C4B NAD A 201      -7.210   6.366  -9.535  1.00  7.75     0.181 C 
HETATM   29  C3B NAD A 201      -7.106   7.873  -9.273  1.00 11.01     0.216 C 
HETATM   30  C2B NAD A 201      -7.177   8.462 -10.708  1.00 11.98     0.234 C 
HETATM   31  O3B NAD A 201      -5.923   8.189  -8.642  1.00 14.64    -0.218 OA
HETATM   32  C1B NAD A 201      -6.449   7.651 -11.390  1.00 12.08     0.241 C 
HETATM   33  O2B NAD A 201      -6.616   9.872 -10.727  1.00 15.48    -0.216 OA
HETATM   34  O4B NAD A 201      -6.870   6.209 -10.797  1.00 12.62    -0.331 OA
BRANCH  32  35
HETATM   35  N9A NAD A 201      -6.738   7.635 -12.811  1.00 14.48    -0.270 N 
HETATM   36  C4A NAD A 201      -5.995   6.960 -13.723  1.00  9.25     0.169 A 
HETATM   37  C5A NAD A 201      -6.560   7.147 -14.922  1.00 12.64     0.148 A 
HETATM   38  N3A NAD A 201      -4.843   6.219 -13.611  1.00 10.86    -0.205 NA
HETATM   39  N7A NAD A 201      -7.657   7.913 -14.765  1.00 11.54    -0.220 NA
HETATM   40  C6A NAD A 201      -6.006   6.589 -16.037  1.00 12.77     0.173 A 
HETATM   41  C8A NAD A 201      -7.778   8.203 -13.457  1.00 11.46     0.182 A 
HETATM   42  N6A NAD A 201      -6.452   6.668 -17.423  1.00 12.38    -0.078 NA
HETATM   43  N1A NAD A 201      -4.884   5.856 -15.942  1.00 10.00    -0.208 NA
HETATM   44  C2A NAD A 201      -4.299   5.667 -14.728  1.00 11.97     0.201 A 
ENDBRANCH  32  35
ENDBRANCH  27  28
ENDBRANCH  26  27
ENDBRANCH   1  26
TORSDOF 11
