REMARK  13 active torsions:
REMARK  status: ('A' for Active; 'I' for Inactive)
REMARK       I    between atoms: C_1658  and  N_1670 
REMARK    1  A    between atoms: C_1658  and  C2_1661 
REMARK    2  A    between atoms: CA_1671  and  N_1670 
REMARK    3  A    between atoms: C1_1672  and  CA_1671 
REMARK    4  A    between atoms: CA_1671  and  CB_1674 
REMARK       I    between atoms: C1_1672  and  N2_1681 
REMARK    5  A    between atoms: CB_1674  and  CG_1675 
REMARK    6  A    between atoms: C9_1678  and  CA1_1680 
REMARK    7  A    between atoms: C9_1678  and  CM_1690 
REMARK    8  A    between atoms: CA1_1680  and  N2_1681 
REMARK    9  A    between atoms: CA1_1680  and  CB1_1682 
REMARK   10  A    between atoms: CB1_1682  and  CG1_1683 
REMARK   11  A    between atoms: CM_1690  and  N11_1689 
REMARK   12  A    between atoms: C21_1691  and  CC_1692 
REMARK       I    between atoms: CC_1692  and  N3_1702 
REMARK   13  A    between atoms: CD_1703  and  N3_1702 
ROOT
HETATM    1  CA1 ROC A 101      14.696  -6.911  -9.373  1.00 16.61     0.143 C 
ENDROOT
BRANCH   1   2
HETATM    2  C9  ROC A 101      13.595  -5.857  -9.384  1.00 14.88     0.208 C 
HETATM    3  O2  ROC A 101      13.876  -4.505  -9.482  1.00 16.85    -0.219 OA
BRANCH   2   4
HETATM    4  CM  ROC A 101      12.717  -5.896  -8.148  1.00 15.83     0.285 C 
BRANCH   4   5
HETATM    5  N11 ROC A 101      11.754  -6.949  -8.648  1.00 14.56     0.147 N 
HETATM    6  C21 ROC A 101      10.931  -7.302  -7.455  1.00 16.04     0.298 C 
HETATM    7  C31 ROC A 101       9.764  -8.288  -7.699  1.00 17.75     0.043 C 
HETATM    8  C3A ROC A 101       8.491  -7.942  -8.515  1.00 16.77     0.004 C 
HETATM    9  C41 ROC A 101       7.678  -9.059  -9.146  1.00 10.90     0.000 C 
HETATM   10  C7A ROC A 101       9.158  -7.389  -9.740  1.00 16.47     0.034 C 
HETATM   11  C51 ROC A 101       8.410 -10.225  -9.793  1.00 13.81     0.000 C 
HETATM   12  C61 ROC A 101       9.111  -9.506 -10.924  1.00 17.81     0.000 C 
HETATM   13  C71 ROC A 101      10.042  -8.435 -10.383  1.00 16.02     0.002 C 
HETATM   14  C81 ROC A 101      10.494  -6.681  -9.418  1.00 10.28     0.251 C 
BRANCH   6  15
HETATM   15  CC  ROC A 101      12.021  -7.802  -6.483  1.00  9.89     0.283 C 
HETATM   16  N3  ROC A 101      11.542  -7.461  -5.121  1.00 10.07    -0.240 NA
HETATM   17  O3  ROC A 101      12.578  -8.845  -6.778  1.00 15.07    -0.268 OA
BRANCH  16  18
HETATM   18  CD  ROC A 101      12.213  -8.049  -3.919  1.00 17.35     0.088 C 
HETATM   19  C11 ROC A 101      13.602  -7.414  -3.964  1.00 26.02     0.025 C 
HETATM   20  C22 ROC A 101      12.545  -9.527  -3.870  1.00 17.97     0.025 C 
HETATM   21  C32 ROC A 101      11.580  -7.429  -2.715  1.00 10.58     0.025 C 
ENDBRANCH  16  18
ENDBRANCH   6  15
ENDBRANCH   4   5
ENDBRANCH   2   4
ENDBRANCH   1   2
BRANCH   1  22
HETATM   22  N2  ROC A 101      15.361  -6.867 -10.691  1.00 12.84    -0.235 NA
HETATM   23  C1  ROC A 101      14.979  -8.025 -11.550  1.00 22.53     0.274 C 
HETATM   24  O1  ROC A 101      14.534  -9.116 -11.230  1.00 16.60    -0.268 OA
BRANCH  23  25
HETATM   25  CA  ROC A 101      15.574  -8.041 -12.951  1.00 20.72     0.195 C 
BRANCH  25  26
HETATM   26  N   ROC A 101      16.913  -8.515 -12.571  1.00 21.69    -0.225 NA
HETATM   27  C   ROC A 101      18.054  -7.648 -12.868  1.00 18.79     0.293 C 
HETATM   28  O   ROC A 101      18.098  -6.723 -13.686  1.00 18.92    -0.264 OA
BRANCH  27  29
HETATM   29  C2  ROC A 101      19.170  -8.642 -12.445  1.00 25.00     0.139 C 
HETATM   30  N1  ROC A 101      19.682  -9.714 -11.801  1.00 19.95    -0.241 NA
HETATM   31  C8A ROC A 101      20.606 -10.715 -11.731  1.00 29.96     0.082 C 
HETATM   32  C4A ROC A 101      21.695  -9.956 -12.170  1.00 32.90     0.018 C 
HETATM   33  C8  ROC A 101      20.505 -11.738 -10.794  1.00 29.73     0.019 C 
HETATM   34  C4  ROC A 101      21.642  -8.663 -12.674  1.00 31.14     0.003 C 
HETATM   35  C5  ROC A 101      22.908 -10.282 -11.554  1.00 25.45     0.002 C 
HETATM   36  C3  ROC A 101      20.388  -8.013 -12.640  1.00 23.38     0.024 C 
HETATM   37  C6  ROC A 101      23.149 -11.297 -10.662  1.00 26.00     0.000 C 
HETATM   38  C7  ROC A 101      21.843 -11.736 -10.417  1.00 32.60     0.002 C 
ENDBRANCH  27  29
ENDBRANCH  25  26
BRANCH  25  39
HETATM   39  CB  ROC A 101      14.908  -9.095 -13.793  1.00 23.68     0.118 C 
BRANCH  39  40
HETATM   40  CG  ROC A 101      15.400  -8.509 -15.097  1.00 22.56     0.245 C 
HETATM   41  OD1 ROC A 101      15.666  -7.410 -15.549  1.00 22.72    -0.276 OA
HETATM   42  ND2 ROC A 101      16.132  -9.301 -16.066  1.00 20.36    -0.061 NA
ENDBRANCH  39  40
ENDBRANCH  25  39
ENDBRANCH  23  25
ENDBRANCH   1  22
BRANCH   1  43
HETATM   43  CB1 ROC A 101      15.783  -6.336  -8.485  1.00 16.49     0.053 C 
BRANCH  43  44
HETATM   44  CG1 ROC A 101      17.155  -6.926  -8.626  1.00 13.22    -0.020 C 
HETATM   45  CD1 ROC A 101      17.100  -8.126  -7.934  1.00 16.48    -0.004 C 
HETATM   46  CE1 ROC A 101      18.040  -9.160  -8.072  1.00 18.00    -0.000 C 
HETATM   47  CZ  ROC A 101      19.296  -8.849  -8.545  1.00 15.78    -0.000 C 
HETATM   48  CE2 ROC A 101      19.236  -7.648  -9.232  1.00 16.01    -0.000 C 
HETATM   49  CD2 ROC A 101      18.456  -6.533  -8.920  1.00 16.96    -0.004 C 
ENDBRANCH  43  44
ENDBRANCH   1  43
TORSDOF 13
