REMARK  15 active torsions:
REMARK  status: ('A' for Active; 'I' for Inactive)
REMARK       I    between atoms: C_2475  and  N49_2478 
REMARK    1  A    between atoms: C50_2479  and  N49_2478 
REMARK    2  A    between atoms: C50_2479  and  C51_2480 
REMARK    3  A    between atoms: C50_2479  and  C52_2481 
REMARK       I    between atoms: C51_2480  and  N_2491 
REMARK    4  A    between atoms: C52_2481  and  C54_2482 
REMARK    5  A    between atoms: C54_2482  and  C57_2483 
REMARK    6  A    between atoms: CA_2492  and  N_2491 
REMARK    7  A    between atoms: C_2493  and  CA_2492 
REMARK    8  A    between atoms: CA_2492  and  CB_2495 
REMARK       I    between atoms: C_2493  and  N_2497 
REMARK    9  A    between atoms: N_2497  and  CA_2498 
REMARK   10  A    between atoms: C_2499  and  CA_2498 
REMARK       I    between atoms: C_2499  and  N_2501 
REMARK   11  A    between atoms: CA_2502  and  N_2501 
REMARK   12  A    between atoms: CA_2502  and  CB_2503 
REMARK   13  A    between atoms: CB_2503  and  CG_2504 
REMARK   14  A    between atoms: CD_2505  and  CG_2504 
REMARK   15  A    between atoms: CD_2505  and  OE1_2506 
ROOT
HETATM    1  C51 73O D   2     -25.338  27.516 -19.199  1.00 72.28     0.274 C 
HETATM    2  O85 73O D   2     -24.780  28.544 -19.043  1.00 69.50    -0.268 OA
HETATM    3  N   DPP D   3     -26.702  27.484 -19.678  1.00 72.24    -0.226 NA
ENDROOT
BRANCH   3   4
HETATM    4  CA  DPP D   3     -27.415  28.711 -19.951  1.00 70.94     0.225 C 
BRANCH   4   5
HETATM    5  C   DPP D   3     -28.813  28.410 -19.419  1.00 72.36     0.277 C 
HETATM    6  O   DPP D   3     -29.696  28.066 -20.139  1.00 74.27    -0.268 OA
ATOM      7  N   GLY D   4     -29.042  28.499 -17.990  1.00 68.35    -0.226 NA
BRANCH   7   8
ATOM      8  CA  GLY D   4     -30.364  28.163 -17.500  1.00 63.60     0.218 C 
BRANCH   8   9
ATOM      9  C   GLY D   4     -31.200  29.406 -17.231  1.00 61.39     0.276 C 
ATOM     10  O   GLY D   4     -30.680  30.444 -17.005  1.00 57.22    -0.268 OA
HETATM   11  N   GVE D   5     -32.641  29.241 -17.296  1.00 66.23    -0.236 NA
BRANCH  11  12
HETATM   12  CA  GVE D   5     -33.605  30.301 -17.047  1.00 59.70     0.129 C 
BRANCH  12  13
HETATM   13  CB  GVE D   5     -34.196  29.918 -15.694  1.00 50.82     0.037 C 
BRANCH  13  14
HETATM   14  CG  GVE D   5     -35.691  29.623 -15.640  1.00 64.51     0.098 C 
BRANCH  14  15
HETATM   15  CD  GVE D   5     -36.474  29.747 -16.940  1.00 69.24     0.272 C 
HETATM   16  OE2 GVE D   5     -36.622  30.798 -17.461  1.00 65.68    -0.264 OA
BRANCH  15  17
HETATM   17  OE1 GVE D   5     -37.057  28.585 -17.469  1.00 78.13    -0.299 OA
HETATM   18  CH3 GVE D   5     -38.370  28.717 -17.950  1.00 73.54     0.184 C 
ENDBRANCH  15  17
ENDBRANCH  14  15
ENDBRANCH  13  14
ENDBRANCH  12  13
ENDBRANCH  11  12
ENDBRANCH   8   9
ENDBRANCH   7   8
ENDBRANCH   4   5
BRANCH   4  19
HETATM   19  CB  DPP D   3     -27.383  29.028 -21.447  1.00 69.67     0.372 C 
HETATM   20  NG  DPP D   3     -26.152  29.736 -21.770  1.00 66.42     0.621 N 
ENDBRANCH   4  19
ENDBRANCH   3   4
BRANCH   1  21
HETATM   21  C50 73O D   2     -24.632  26.203 -18.911  1.00 78.65     0.186 C 
BRANCH  21  22
HETATM   22  N49 73O D   2     -23.350  26.511 -18.317  1.00 81.45    -0.230 NA
HETATM   23  C   ACY D   1     -22.167  26.295 -19.129  1.00 82.73     0.252 C 
HETATM   24  O   ACY D   1     -22.301  25.870 -20.230  1.00 81.92    -0.271 OA
HETATM   25  CH3 ACY D   1     -20.777  26.597 -18.566  1.00 81.45     0.100 C 
ENDBRANCH  21  22
BRANCH  21  26
HETATM   26  C52 73O D   2     -25.535  25.376 -17.993  1.00 87.06     0.039 C 
BRANCH  26  27
HETATM   27  C54 73O D   2     -24.858  24.558 -16.888  1.00 90.98     0.029 C 
BRANCH  27  28
HETATM   28  C57 73O D   2     -23.727  23.685 -17.407  1.00 98.39    -0.022 A 
HETATM   29  C64 73O D   2     -22.510  23.689 -16.741  1.00104.59    -0.002 A 
HETATM   30  C63 73O D   2     -21.465  22.908 -17.205  1.00106.10     0.027 A 
HETATM   31  C62 73O D   2     -21.648  22.131 -18.334  1.00107.80     0.131 A 
HETATM   32  C61 73O D   2     -22.864  22.129 -19.000  1.00103.40     0.027 A 
HETATM   33  O69 73O D   2     -20.590  21.339 -18.799  1.00112.77    -0.190 OA
HETATM   34  C60 73O D   2     -23.910  22.904 -18.537  1.00 99.81    -0.002 A 
ENDBRANCH  27  28
ENDBRANCH  26  27
ENDBRANCH  21  26
ENDBRANCH   1  21
TORSDOF 15
