REMARK  15 active torsions:
REMARK  status: ('A' for Active; 'I' for Inactive)
REMARK    1  A    between atoms: C2_2  and  O3_3 
REMARK       I    between atoms: C2_2  and  N8_8 
REMARK    2  A    between atoms: O3_3  and  C4_4 
REMARK    3  A    between atoms: N8_8  and  C9_9 
REMARK    4  A    between atoms: N15_15  and  C16_16 
REMARK    5  A    between atoms: C16_16  and  C17_17 
REMARK    6  A    between atoms: C16_16  and  C21_21 
REMARK    7  A    between atoms: C17_17  and  C18_18 
REMARK       I    between atoms: C21_21  and  N23_23 
REMARK    8  A    between atoms: N23_23  and  C24_24 
REMARK    9  A    between atoms: C24_24  and  C32_32 
REMARK   10  A    between atoms: C24_24  and  C25_25 
REMARK   11  A    between atoms: C25_25  and  C26_26 
REMARK   12  A    between atoms: C32_32  and  O33_33 
REMARK   13  A    between atoms: C32_32  and  C34_34 
REMARK       I    between atoms: C34_34  and  N36_36 
REMARK   14  A    between atoms: N36_36  and  C37_37 
REMARK   15  A    between atoms: C37_37  and  C38_38 
ROOT
ATOM      1  C21 UNK d          -0.213  -0.166  -0.555  0.00  0.00     0.241 C 
ATOM      2  O22 UNK d          -0.178   0.271   0.576  0.00  0.00    -0.271 OA
ATOM      3  N23 UNK d          -1.114   0.314  -1.435  0.00  0.00    -0.352 N 
ATOM      4  H65 UNK d          -1.191  -0.085  -2.316  0.00  0.00     0.163 HD
ENDROOT
BRANCH   3   5
ATOM      5  C24 UNK d          -1.975   1.438  -1.062  0.00  0.00     0.123 C 
BRANCH   5   6
ATOM      6  C32 UNK d          -3.208   1.458  -1.968  0.00  0.00     0.232 C 
BRANCH   6   7
ATOM      7  O33 UNK d          -2.798   1.604  -3.329  0.00  0.00    -0.384 OA
ATOM      8  H76 UNK d          -2.223   0.893  -3.645  0.00  0.00     0.210 HD
ENDBRANCH   6   7
BRANCH   6   9
ATOM      9  C34 UNK d          -3.970   0.167  -1.808  0.00  0.00     0.248 C 
ATOM     10  N36 UNK d          -4.544  -0.135  -0.627  0.00  0.00    -0.355 N 
ATOM     11  H77 UNK d          -4.467   0.478   0.120  0.00  0.00     0.162 HD
ATOM     12  O35 UNK d          -4.066  -0.600  -2.743  0.00  0.00    -0.271 OA
BRANCH  10  13
ATOM     13  C37 UNK d          -5.284  -1.390  -0.472  0.00  0.00     0.161 C 
BRANCH  13  14
ATOM     14  C38 UNK d          -5.822  -1.485   0.933  0.00  0.00    -0.041 A 
ATOM     15  C39 UNK d          -7.074  -0.980   1.229  0.00  0.00     0.009 A 
ATOM     16  C40 UNK d          -7.567  -1.067   2.517  0.00  0.00     0.001 A 
ATOM     17  C41 UNK d          -6.809  -1.660   3.509  0.00  0.00     0.000 A 
ATOM     18  C42 UNK d          -5.557  -2.165   3.213  0.00  0.00     0.001 A 
ATOM     19  C43 UNK d          -5.066  -2.084   1.923  0.00  0.00     0.009 A 
ENDBRANCH  13  14
ENDBRANCH  10  13
ENDBRANCH   6   9
ENDBRANCH   5   6
BRANCH   5  20
ATOM     20  C25 UNK d          -1.203   2.749  -1.224  0.00  0.00     0.042 C 
BRANCH  20  21
ATOM     21  C26 UNK d          -2.074   3.916  -0.755  0.00  0.00     0.081 C 
ATOM     22  C27 UNK d          -2.342   3.812   0.730  0.00  0.00     0.221 C 
ATOM     23  O28 UNK d          -3.147   3.062   1.240  0.00  0.00    -0.273 OA
ATOM     24  N29 UNK d          -1.559   4.673   1.403  0.00  0.00    -0.361 N 
ATOM     25  C30 UNK d          -0.690   5.427   0.491  0.00  0.00     0.123 C 
ATOM     26  H70 UNK d          -1.566   4.781   2.366  0.00  0.00     0.162 HD
ATOM     27  C31 UNK d          -1.316   5.254  -0.914  0.00  0.00     0.034 C 
ENDBRANCH  20  21
ENDBRANCH   5  20
ENDBRANCH   3   5
BRANCH   1  28
ATOM     28  C16 UNK d           0.749  -1.247  -0.975  0.00  0.00     0.184 C 
BRANCH  28  29
ATOM     29  N15 UNK d           1.617  -1.594   0.154  0.00  0.00    -0.309 N 
ATOM     30  C10 UNK d           2.950  -1.441   0.040  0.00  0.00     0.275 A 
ATOM     31  C9  UNK d           3.792  -1.773   1.123  0.00  0.00     0.105 A 
ATOM     32  O11 UNK d           3.429  -1.017  -0.999  0.00  0.00    -0.265 OA
ATOM     33  C12 UNK d           3.237  -2.253   2.277  0.00  0.00     0.037 A 
ATOM     34  C13 UNK d           1.845  -2.398   2.359  0.00  0.00     0.020 A 
ATOM     35  C14 UNK d           1.066  -2.066   1.304  0.00  0.00     0.095 A 
BRANCH  31  36
ATOM     36  N8  UNK d           5.181  -1.619   1.014  0.00  0.00    -0.298 N 
ATOM     37  C2  UNK d           5.706  -0.404   0.758  0.00  0.00     0.366 C 
ATOM     38  O1  UNK d           4.974   0.538   0.530  0.00  0.00    -0.238 OA
ATOM     39  H53 UNK d           5.765  -2.386   1.124  0.00  0.00     0.171 HD
BRANCH  37  40
ATOM     40  O3  UNK d           7.042  -0.234   0.761  0.00  0.00    -0.294 OA
BRANCH  40  41
ATOM     41  C4  UNK d           7.537   1.103   0.483  0.00  0.00     0.061 C 
ATOM     42  C5  UNK d           6.996   2.076   1.533  0.00  0.00     0.046 C 
ATOM     43  C6  UNK d           9.066   1.101   0.530  0.00  0.00     0.046 C 
ATOM     44  C7  UNK d           7.069   1.541  -0.906  0.00  0.00     0.046 C 
ENDBRANCH  40  41
ENDBRANCH  37  40
ENDBRANCH  31  36
ENDBRANCH  28  29
BRANCH  28  45
ATOM     45  C17 UNK d          -0.035  -2.486  -1.414  0.00  0.00     0.040 C 
BRANCH  45  46
ATOM     46  C18 UNK d           0.935  -3.537  -1.957  0.00  0.00    -0.012 A 
ATOM     47  C19 UNK d           0.356  -4.900  -2.342  0.00  0.00     0.005 A 
ATOM     48  C20 UNK d           0.804  -3.924  -3.432  0.00  0.00     0.005 A 
ENDBRANCH  45  46
ENDBRANCH  28  45
ENDBRANCH   1  28
TORSDOF 15
