REMARK  6 active torsions:
REMARK  status: ('A' for Active; 'I' for Inactive)
REMARK    1  A    between atoms: O6_6  and  C26_26 
REMARK    2  A    between atoms: O6_6  and  C38_38 
REMARK    3  A    between atoms: O8_8  and  C38_38 
REMARK    4  A    between atoms: O8_8  and  C39_39 
REMARK    5  A    between atoms: O9_9  and  C39_39 
REMARK    6  A    between atoms: N11_11  and  C15_15 
ROOT
ATOM      1  O4  UNK d           1.190  -3.924  -1.935  0.00  0.00    -0.386 OA
ATOM      2  O5  UNK d          -2.134  -2.161   0.841  0.00  0.00    -0.266 OA
ATOM      3  O7  UNK d          -3.755   1.934  -1.766  0.00  0.00    -0.285 OA
ATOM      4  N11 UNK d           1.098  -0.336  -0.871  0.00  0.00    -0.185 NA
ATOM      5  N12 UNK d           0.029  -2.329   0.037  0.00  0.00    -0.324 N 
ATOM      6  N13 UNK d          -0.191   0.145  -1.162  0.00  0.00    -0.275 N 
ATOM      7  C14 UNK d           1.106  -1.796  -0.791  0.00  0.00     0.207 C 
ATOM      8  C16 UNK d           1.041  -2.506  -2.147  0.00  0.00     0.210 C 
ATOM      9  C17 UNK d           0.149  -3.763   0.275  0.00  0.00     0.154 C 
ATOM     10  C18 UNK d          -1.335  -0.410  -0.586  0.00  0.00     0.156 A 
ATOM     11  C19 UNK d          -1.204  -1.698   0.183  0.00  0.00     0.276 C 
ATOM     12  C22 UNK d           0.160  -4.460  -1.087  0.00  0.00     0.187 C 
ATOM     13  C24 UNK d          -0.295   1.263  -1.969  0.00  0.00     0.115 A 
ATOM     14  C26 UNK d          -2.559   0.137  -0.758  0.00  0.00     0.155 A 
ATOM     15  C30 UNK d          -1.440   1.903  -2.225  0.00  0.00     0.076 A 
ATOM     16  C31 UNK d          -2.677   1.375  -1.595  0.00  0.00     0.209 A 
ENDROOT
BRANCH   4  17
ATOM     17  C15 UNK d           1.585   0.290   0.363  0.00  0.00     0.150 C 
ATOM     18  C20 UNK d           3.011  -0.116   0.694  0.00  0.00    -0.024 A 
ATOM     19  C23 UNK d           4.121   0.306  -0.057  0.00  0.00     0.002 A 
ATOM     20  C27 UNK d           3.229  -0.993   1.776  0.00  0.00     0.013 A 
ATOM     21  C28 UNK d           3.972   1.282  -1.184  0.00  0.00     0.121 C 
ATOM     22  C32 UNK d           5.408  -0.147   0.287  0.00  0.00     0.162 A 
ATOM     23  S1  UNK d           3.667   2.948  -0.559  0.00  0.00    -0.125 SA
ATOM     24  C25 UNK d           1.991   2.886   0.081  0.00  0.00     0.009 A 
ATOM     25  C21 UNK d           1.213   1.769   0.452  0.00  0.00    -0.017 A 
ATOM     26  C33 UNK d           1.440   4.181   0.238  0.00  0.00     0.019 A 
ATOM     27  C29 UNK d          -0.102   2.014   0.935  0.00  0.00     0.010 A 
ATOM     28  C35 UNK d          -0.625   3.297   1.074  0.00  0.00     0.001 A 
ATOM     29  C37 UNK d           0.151   4.386   0.726  0.00  0.00     0.001 A 
ATOM     30  F2  UNK d           6.479   0.261  -0.411  0.00  0.00    -0.202 F 
ATOM     31  C36 UNK d           5.601  -1.014   1.360  0.00  0.00     0.155 A 
ATOM     32  F3  UNK d           6.834  -1.434   1.671  0.00  0.00    -0.203 F 
ATOM     33  C34 UNK d           4.510  -1.436   2.107  0.00  0.00     0.046 A 
ENDBRANCH   4  17
BRANCH  14  34
ATOM     34  O6  UNK d          -3.721  -0.384  -0.234  0.00  0.00    -0.319 OA
BRANCH  34  35
ATOM     35  C38 UNK d          -3.981   0.147   1.057  0.00  0.00     0.357 C 
BRANCH  35  36
ATOM     36  O8  UNK d          -5.174  -0.434   1.617  0.00  0.00    -0.272 OA
BRANCH  36  37
ATOM     37  C39 UNK d          -6.337  -0.188   0.952  0.00  0.00     0.408 C 
ATOM     38  O10 UNK d          -6.456   0.477  -0.068  0.00  0.00    -0.229 OA
BRANCH  37  39
ATOM     39  O9  UNK d          -7.346  -0.813   1.622  0.00  0.00    -0.303 OA
ATOM     40  C40 UNK d          -8.652  -0.660   1.057  0.00  0.00     0.215 C 
ENDBRANCH  37  39
ENDBRANCH  36  37
ENDBRANCH  35  36
ENDBRANCH  34  35
ENDBRANCH  14  34
TORSDOF 6
