REMARK  14 active torsions:
REMARK  status: ('A' for Active; 'I' for Inactive)
REMARK    1  A    between atoms: S1_1  and  O4_4 
REMARK    2  A    between atoms: S1_1  and  C18_18 
REMARK    3  A    between atoms: O2_2  and  C18_18 
REMARK    4  A    between atoms: O8_8  and  C26_26 
REMARK    5  A    between atoms: O8_8  and  C27_27 
REMARK    6  A    between atoms: N10_10  and  C15_15 
REMARK       I    between atoms: N10_10  and  C21_21 
REMARK    7  A    between atoms: N12_12  and  C20_20 
REMARK       I    between atoms: N12_12  and  C26_26 
REMARK    8  A    between atoms: C13_13  and  C14_14 
REMARK    9  A    between atoms: C14_14  and  C15_15 
REMARK   10  A    between atoms: C15_15  and  C18_18 
REMARK   11  A    between atoms: C20_20  and  C21_21 
REMARK   12  A    between atoms: C20_20  and  C22_22 
REMARK   13  A    between atoms: C22_22  and  C23_23 
REMARK   14  A    between atoms: C27_27  and  C28_28 
ROOT
ATOM      1  O5  UNK d           0.489   0.842   1.472  0.00  0.00    -0.271 OA
ATOM      2  N10 UNK d           1.831   0.919  -0.422  0.00  0.00    -0.351 N 
ATOM      3  C21 UNK d           0.678   1.181   0.306  0.00  0.00     0.241 C 
ATOM      4  H43 UNK d           1.917   1.302  -1.359  0.00  0.00     0.163 HD
ENDROOT
BRANCH   2   5
ATOM      5  C15 UNK d           2.964   0.204   0.119  0.00  0.00     0.130 C 
BRANCH   5   6
ATOM      6  C14 UNK d           3.668  -0.598  -0.989  0.00  0.00     0.043 C 
BRANCH   6   7
ATOM      7  C13 UNK d           2.915  -1.857  -1.369  0.00  0.00     0.081 C 
ATOM      8  C16 UNK d           3.324  -2.419  -2.734  0.00  0.00     0.034 C 
ATOM      9  C17 UNK d           2.992  -3.894  -2.616  0.00  0.00     0.123 C 
ATOM     10  N11 UNK d           3.217  -4.172  -1.224  0.00  0.00    -0.361 N 
ATOM     11  C19 UNK d           3.201  -3.022  -0.439  0.00  0.00     0.221 C 
ATOM     12  H44 UNK d           3.345  -5.105  -0.847  0.00  0.00     0.162 HD
ATOM     13  O3  UNK d           3.345  -2.956   0.772  0.00  0.00    -0.273 OA
ENDBRANCH   6   7
ENDBRANCH   5   6
BRANCH   5  14
ATOM     14  C18 UNK d           3.946   1.162   0.820  0.00  0.00     0.275 C 
BRANCH  14  15
ATOM     15  S1  UNK d           4.877   0.352   2.125  0.00  0.00     0.125 S 
ATOM     16  O6  UNK d           5.968  -0.398   1.539  0.00  0.00    -0.600 OA
ATOM     17  O7  UNK d           3.945  -0.253   3.055  0.00  0.00    -0.600 OA
BRANCH  15  18
ATOM     18  O4  UNK d           5.483   1.703   2.807  0.00  0.00    -0.294 OA
ATOM     19  H57 UNK d           4.837   2.252   3.311  0.00  0.00     0.232 HD
ENDBRANCH  15  18
ENDBRANCH  14  15
BRANCH  14  20
ATOM     20  O2  UNK d           4.788   1.812  -0.127  0.00  0.00    -0.377 OA
ATOM     21  H49 UNK d           4.211   2.277  -0.757  0.00  0.00     0.211 HD
ENDBRANCH  14  20
ENDBRANCH   5  14
ENDBRANCH   2   5
BRANCH   3  22
ATOM     22  C20 UNK d          -0.375   1.901  -0.530  0.00  0.00     0.179 C 
BRANCH  22  23
ATOM     23  N12 UNK d          -1.659   1.384  -0.132  0.00  0.00    -0.324 N 
ATOM     24  C26 UNK d          -2.234   0.250  -0.672  0.00  0.00     0.361 C 
ATOM     25  O9  UNK d          -1.740  -0.455  -1.546  0.00  0.00    -0.238 OA
ATOM     26  H50 UNK d          -2.153   1.846   0.626  0.00  0.00     0.165 HD
BRANCH  24  27
ATOM     27  O8  UNK d          -3.448   0.022  -0.086  0.00  0.00    -0.299 OA
BRANCH  27  28
ATOM     28  C27 UNK d          -4.160  -1.129  -0.554  0.00  0.00     0.219 C 
BRANCH  28  29
ATOM     29  C28 UNK d          -5.462  -1.234   0.185  0.00  0.00    -0.034 A 
ATOM     30  C29 UNK d          -5.532  -1.957   1.376  0.00  0.00     0.009 A 
ATOM     31  C31 UNK d          -6.742  -2.054   2.063  0.00  0.00     0.001 A 
ATOM     32  C33 UNK d          -7.882  -1.428   1.559  0.00  0.00     0.000 A 
ATOM     33  C32 UNK d          -7.812  -0.704   0.369  0.00  0.00     0.001 A 
ATOM     34  C30 UNK d          -6.602  -0.607  -0.318  0.00  0.00     0.009 A 
ENDBRANCH  28  29
ENDBRANCH  27  28
ENDBRANCH  24  27
ENDBRANCH  22  23
BRANCH  22  35
ATOM     35  C22 UNK d          -0.271   3.417  -0.325  0.00  0.00     0.038 C 
BRANCH  35  36
ATOM     36  C23 UNK d          -1.323   4.247  -1.089  0.00  0.00    -0.020 C 
ATOM     37  C24 UNK d          -1.204   5.744  -0.802  0.00  0.00     0.009 C 
ATOM     38  C25 UNK d          -1.185   3.998  -2.593  0.00  0.00     0.009 C 
ENDBRANCH  35  36
ENDBRANCH  22  35
ENDBRANCH   3  22
TORSDOF 14
