REMARK  22 active torsions:
REMARK  status: ('A' for Active; 'I' for Inactive)
REMARK    1  A    between atoms: N1_1  and  C10_10 
REMARK    2  A    between atoms: P6_6  and  O17_17 
REMARK    3  A    between atoms: P6_6  and  O19_19 
REMARK    4  A    between atoms: P6_6  and  C12_12 
REMARK    5  A    between atoms: C7_7  and  N14_14 
REMARK    6  A    between atoms: C10_10  and  C15_15 
REMARK    7  A    between atoms: C12_12  and  O13_13 
REMARK    8  A    between atoms: O13_13  and  C15_15 
REMARK    9  A    between atoms: O17_17  and  C20_20 
REMARK   10  A    between atoms: O19_19  and  C28_28 
REMARK   11  A    between atoms: C20_20  and  O21_21 
REMARK   12  A    between atoms: O21_21  and  C22_22 
REMARK   13  A    between atoms: C22_22  and  O23_23 
REMARK   14  A    between atoms: O23_23  and  C25_25 
REMARK   15  A    between atoms: C28_28  and  O29_29 
REMARK   16  A    between atoms: O29_29  and  C30_30 
REMARK   17  A    between atoms: C30_30  and  O31_31 
REMARK   18  A    between atoms: O31_31  and  C33_33 
REMARK   19  A    between atoms: C36_36  and  C39_39 
REMARK   20  A    between atoms: C36_36  and  O42_42 
REMARK   21  A    between atoms: C37_37  and  C38_38 
REMARK   22  A    between atoms: C37_37  and  O43_43 
ROOT
ATOM      1  C38 UNK d           0.970   0.071   2.485  0.00  0.00     0.088 C 
ATOM      2  C39 UNK d           0.350  -0.088   1.300  0.00  0.00     0.088 C 
ENDROOT
BRANCH   1   3
ATOM      3  C37 UNK d           0.126   0.271   3.672  0.00  0.00     0.165 C 
ATOM      4  O41 UNK d          -1.061   0.655   3.611  0.00  0.00    -0.647 OA
BRANCH   3   5
ATOM      5  O43 UNK d           0.743   0.013   4.824  0.00  0.00    -0.773 OA
ATOM      6  H77 UNK d           1.683  -0.265   4.763  0.00  0.00     0.167 HD
ENDBRANCH   3   5
ENDBRANCH   1   3
BRANCH   2   7
ATOM      7  C36 UNK d           1.063  -0.232   0.015  0.00  0.00     0.165 C 
ATOM      8  O40 UNK d           2.247  -0.208  -0.054  0.00  0.00    -0.647 OA
BRANCH   7   9
ATOM      9  O42 UNK d           0.222  -0.349  -1.051  0.00  0.00    -0.773 OA
ATOM     10  H76 UNK d          -0.706  -0.530  -0.866  0.00  0.00     0.167 HD
ENDBRANCH   7   9
ENDBRANCH   2   7
TORSDOF 22
