@<TRIPOS>MOLECULE
UI3_A1001_1SQT
   45    47     0     0     0
SMALL
USER_CHARGES

@<TRIPOS>ATOM
      1 C1         25.5590   15.1380   34.2870 C.3       1 <0>         0.0430
      2 C2         24.4350   17.8920   39.7690 C.3       1 <0>         0.0747
      3 C3         19.5460   16.7560   32.1380 C.ar      1 <0>        -0.0532
      4 C4         21.6050   15.5170   32.3500 C.ar      1 <0>        -0.0516
      5 C5         18.7320   17.7980   32.5450 C.ar      1 <0>        -0.0464
      6 C6         22.8630   15.2860   32.9690 C.ar      1 <0>        -0.0308
      7 C7         20.4510   18.5740   34.1440 C.ar      1 <0>        -0.0389
      8 C8         23.3510   19.7130   35.0840 C.3       1 <0>         0.0235
      9 C9         23.8430   17.9820   36.4130 C.3       1 <0>         0.0540
     10 C10        20.8180   16.6100   32.7350 C.ar      1 <0>        -0.0174
     11 C11        19.1780   18.6980   33.5390 C.ar      1 <0>         0.0616
     12 C12        23.3240   16.1860   33.9870 C.ar      1 <0>         0.0799
     13 C13        21.2960   17.5270   33.7420 C.ar      1 <0>        -0.0111
     14 C14        22.5690   17.3060   34.3480 C.ar      1 <0>        -0.0038
     15 C15        23.2310   18.2790   35.2620 C.3       1 <0>         0.0198
     16 C16        18.3140   19.7900   33.9540 C.cat     1 <0>         0.2605
     17 N1         16.9780   19.7470   33.6840 N.pl3     1 <0>        -0.3060
     18 N2         18.7730   20.8310   34.5960 N.pl3     1 <0>        -0.2158
     19 N3         24.1440   20.1530   36.0980 N.3       1 <0>        -0.2243
     20 N4         23.9820   19.2160   37.2050 N.pl3     1 <0>        -0.1716
     21 O1         24.8390   20.5130   39.2400 O.2       1 <0>        -0.1544
     22 O2         26.2700   18.8100   38.1540 O.2       1 <0>        -0.1544
     23 O3         24.5530   16.0550   34.7060 O.3       1 <0>        -0.3476
     24 S1         24.9760   19.1860   38.6680 S.o2      1 <0>         0.0513
     25 H1         26.4167   15.1950   34.9734 H         1 <0>         0.0529
     26 H2         25.1503   14.1168   34.2951 H         1 <0>         0.0529
     27 H3         25.8869   15.3938   33.2687 H         1 <0>         0.0529
     28 H4         25.0647   17.8902   40.6709 H         1 <0>         0.0483
     29 H5         23.3871   18.0675   40.0540 H         1 <0>         0.0483
     30 H6         24.5192   16.9198   39.2613 H         1 <0>         0.0483
     31 H7         19.2145   16.0656   31.3765 H         1 <0>         0.0624
     32 H8         21.2540   14.8469   31.5792 H         1 <0>         0.0624
     33 H9         17.7548   17.9237   32.1026 H         1 <0>         0.0626
     34 H10        23.4671   14.4401   32.6757 H         1 <0>         0.0644
     35 H11        20.7679   19.2737   34.9032 H         1 <0>         0.0632
     36 H12        23.8038   19.9459   34.1090 H         1 <0>         0.0448
     37 H13        22.3623   20.1931   35.1290 H         1 <0>         0.0448
     38 H14        23.2459   17.2468   36.9724 H         1 <0>         0.0500
     39 H15        24.8372   17.5589   36.2068 H         1 <0>         0.0500
     40 H16        22.6864   17.6347   34.5561 H         1 <0>         0.0379
     41 H17        16.3845   20.4971   33.9757 H         1 <0>         0.1477
     42 H18        16.5918   18.9653   33.1943 H         1 <0>         0.1477
     43 H19        18.1499   21.5627   34.8724 H         1 <0>         0.4359
     44 H20        19.7474   20.8962   34.8110 H         1 <0>         0.4359
     45 H21        25.0994   20.1806   35.8041 H         1 <0>         0.1457
@<TRIPOS>BOND
     1    1   23 1
     2    2   24 1
     3    3    5 ar
     4    3   10 ar
     5    4    6 ar
     6    4   10 ar
     7    5   11 ar
     8    6   12 ar
     9    7   11 ar
    10    7   13 ar
    11    8   15 1
    12    8   19 1
    13    9   15 1
    14    9   20 1
    15   10   13 ar
    16   11   16 1
    17   12   14 ar
    18   12   23 1
    19   13   14 ar
    20   14   15 1
    21   16   17 1
    22   16   18 2
    23   19   20 1
    24   20   24 1
    25   21   24 2
    26   22   24 2
    27    1   25 1
    28    1   26 1
    29    1   27 1
    30    2   28 1
    31    2   29 1
    32    2   30 1
    33    3   31 1
    34    4   32 1
    35    5   33 1
    36    6   34 1
    37    7   35 1
    38    8   36 1
    39    8   37 1
    40    9   38 1
    41    9   39 1
    42   15   40 1
    43   17   41 1
    44   17   42 1
    45   18   43 1
    46   18   44 1
    47   19   45 1
