@<TRIPOS>MOLECULE
413_H1261_1W7X
   70    73     0     0     0
SMALL
USER_CHARGES

@<TRIPOS>ATOM
      1 C1         12.9060   43.6620   34.7290 C.3       1 <0>         0.0431
      2 C2         11.1680   46.0450   26.4160 C.ar      1 <0>        -0.0617
      3 C3          8.5870   43.5100   37.2490 C.ar      1 <0>        -0.0617
      4 C4         10.1120   46.8290   26.8800 C.ar      1 <0>        -0.0614
      5 C5         11.9920   45.3980   27.3370 C.ar      1 <0>        -0.0614
      6 C6          8.7230   43.6650   35.8700 C.ar      1 <0>        -0.0614
      7 C7          7.9750   42.3680   37.7780 C.ar      1 <0>        -0.0614
      8 C8          9.8880   46.9780   28.2510 C.ar      1 <0>        -0.0564
      9 C9         11.7710   45.5420   28.7070 C.ar      1 <0>        -0.0564
     10 C10         8.2140   42.6780   35.0240 C.ar      1 <0>        -0.0564
     11 C11         7.4770   41.3760   36.9210 C.ar      1 <0>        -0.0564
     12 C12        12.2880   38.5500   28.9610 C.ar      1 <0>        -0.0452
     13 C13        13.9330   37.6840   30.5240 C.ar      1 <0>        -0.0452
     14 C14        11.5210   39.0270   30.0090 C.ar      1 <0>        -0.0400
     15 C15        13.1440   38.1660   31.5700 C.ar      1 <0>        -0.0400
     16 C16         9.7470   42.2550   31.0060 C.ar      1 <0>        -0.0537
     17 C17        10.0450   43.5980   30.8000 C.ar      1 <0>        -0.0288
     18 C18        11.2400   42.2450   32.9100 C.ar      1 <0>        -0.0237
     19 C19        10.4420   46.4910   30.6590 C.3       1 <0>         0.0794
     20 C20        10.7150   46.3240   29.1780 C.ar      1 <0>        -0.0214
     21 C21         7.5880   41.5320   35.5400 C.ar      1 <0>        -0.0217
     22 C22        13.5020   37.8900   29.2060 C.ar      1 <0>         0.0611
     23 C23        11.9270   38.8260   31.3310 C.ar      1 <0>         0.0279
     24 C24        10.3530   41.5620   32.0720 C.ar      1 <0>        -0.0159
     25 C25        10.9350   44.2740   31.6400 C.ar      1 <0>         0.1065
     26 C26        11.5280   43.5900   32.7070 C.ar      1 <0>         0.1060
     27 C27         7.0610   40.4800   34.6210 C.3       1 <0>         0.0879
     28 C28        10.0100   40.1250   32.2890 C.3       1 <0>         0.1231
     29 C29        14.2900   37.4000   28.0320 C.cat     1 <0>         0.2605
     30 C30         5.6730   40.9080   34.2600 C.2       1 <0>         0.0664
     31 C31         9.1900   40.0340   33.5440 C.2       1 <0>         0.2386
     32 N1         13.7730   37.6040   26.8100 N.pl3     1 <0>        -0.3060
     33 N2         15.4680   36.7800   28.1850 N.pl3     1 <0>        -0.2158
     34 N3         11.2010   39.2870   32.3880 N.pl3     1 <0>        -0.3294
     35 N4          7.9250   40.4530   33.4550 N.am      1 <0>        -0.3015
     36 O1          4.7950   40.8510   35.1530 O.co2     1 <0>        -0.5475
     37 O2          5.4660   41.3040   33.0920 O.co2     1 <0>        -0.5475
     38 O3          9.6510   39.6130   34.6010 O.2       1 <0>        -0.2734
     39 O4         12.4170   44.2590   33.5190 O.3       1 <0>        -0.3453
     40 O5         11.2460   45.6070   31.4430 O.3       1 <0>        -0.3375
     41 H1         13.5996   44.3558   35.2265 H         1 <0>         0.0529
     42 H2         12.0606   43.4459   35.3987 H         1 <0>         0.0529
     43 H3         13.4326   42.7265   34.4893 H         1 <0>         0.0529
     44 H4         11.3457   45.9400   25.3559 H         1 <0>         0.0618
     45 H5          8.9566   44.2768   37.9137 H         1 <0>         0.0618
     46 H6          9.4623   47.3248   26.1740 H         1 <0>         0.0618
     47 H7         12.8067   44.7813   26.9871 H         1 <0>         0.0618
     48 H8          9.2149   44.5358   35.4623 H         1 <0>         0.0618
     49 H9          7.8861   42.2505   38.8479 H         1 <0>         0.0618
     50 H10         9.0755   47.5987   28.5990 H         1 <0>         0.0621
     51 H11        12.4228   45.0439   29.4095 H         1 <0>         0.0621
     52 H12         8.3033   42.7980   33.9544 H         1 <0>         0.0621
     53 H13         7.0085   40.4930   37.3299 H         1 <0>         0.0621
     54 H14        11.9492   38.6869   27.9447 H         1 <0>         0.0627
     55 H15        14.8570   37.1628   30.7262 H         1 <0>         0.0627
     56 H16        10.6030   39.5578   29.8042 H         1 <0>         0.0636
     57 H17        13.4774   38.0281   32.5880 H         1 <0>         0.0636
     58 H18         9.0544   41.7462   30.3519 H         1 <0>         0.0622
     59 H19         9.5822   44.1261   29.9794 H         1 <0>         0.0644
     60 H20        11.7091   41.7191   33.7284 H         1 <0>         0.0648
     61 H21        10.6710   47.5277   30.9469 H         1 <0>         0.0615
     62 H22         9.3817   46.2700   30.8511 H         1 <0>         0.0615
     63 H23         7.0394   39.4738   35.0650 H         1 <0>         0.0610
     64 H24         9.4406   39.7516   31.4251 H         1 <0>         0.0645
     65 H25        14.2681   37.2918   25.9992 H         1 <0>         0.1477
     66 H26        12.8928   38.0681   26.7106 H         1 <0>         0.1477
     67 H27        15.9739   36.4626   27.3829 H         1 <0>         0.4359
     68 H28        15.8413   36.6347   29.1013 H         1 <0>         0.4359
     69 H29        10.8883   38.4610   32.8570 H         1 <0>         0.1471
     70 H30         7.5673   40.7530   32.5707 H         1 <0>         0.1497
@<TRIPOS>BOND
     1    1   39 1
     2    2    4 ar
     3    2    5 ar
     4    3    6 ar
     5    3    7 ar
     6    4    8 ar
     7    5    9 ar
     8    6   10 ar
     9    7   11 ar
    10    8   20 ar
    11    9   20 ar
    12   10   21 ar
    13   11   21 ar
    14   12   14 ar
    15   12   22 ar
    16   13   15 ar
    17   13   22 ar
    18   14   23 ar
    19   15   23 ar
    20   16   17 ar
    21   16   24 ar
    22   17   25 ar
    23   18   24 ar
    24   18   26 ar
    25   19   20 1
    26   19   40 1
    27   21   27 1
    28   22   29 1
    29   23   34 1
    30   24   28 1
    31   25   26 ar
    32   25   40 1
    33   26   39 1
    34   27   30 1
    35   27   35 1
    36   28   31 1
    37   28   34 1
    38   29   32 1
    39   29   33 2
    40   30   36 1
    41   30   37 2
    42   31   35 am
    43   31   38 2
    44    1   41 1
    45    1   42 1
    46    1   43 1
    47    2   44 1
    48    3   45 1
    49    4   46 1
    50    5   47 1
    51    6   48 1
    52    7   49 1
    53    8   50 1
    54    9   51 1
    55   10   52 1
    56   11   53 1
    57   12   54 1
    58   13   55 1
    59   14   56 1
    60   15   57 1
    61   16   58 1
    62   17   59 1
    63   18   60 1
    64   19   61 1
    65   19   62 1
    66   27   63 1
    67   28   64 1
    68   32   65 1
    69   32   66 1
    70   33   67 1
    71   33   68 1
    72   34   69 1
    73   35   70 1
