REMARK  8 active torsions:
REMARK  status: ('A' for Active; 'I' for Inactive)
REMARK    1  A    between atoms: C_28  and  C1_1 
REMARK    2  A    between atoms: C4_5  and  C5_6 
REMARK    3  A    between atoms: C23_9  and  C24_8 
REMARK    4  A    between atoms: C23_9  and  C25_10 
REMARK    5  A    between atoms: C23_9  and  N1_16 
REMARK    6  A    between atoms: C25_10  and  C26_11 
REMARK    7  A    between atoms: C22_17  and  N1_16 
REMARK    8  A    between atoms: C21_18  and  C22_17 
REMARK       I    between atoms: C_28  and  N_27 
ROOT
HETATM    1  C21 3BL A 401     -24.663 -41.866   2.872  1.00 20.00     0.120 C 
HETATM    2  C20 3BL A 401     -24.759 -41.223   4.247  1.00 20.00     0.025 C 
HETATM    3  C19 3BL A 401     -25.281 -42.193   5.273  1.00 20.00     0.004 C 
HETATM    4  C18 3BL A 401     -25.399 -41.545   6.624  1.00 20.00     0.000 C 
HETATM    5  C17 3BL A 401     -26.004 -42.488   7.637  1.00 20.00     0.000 C 
HETATM    6  C16 3BL A 401     -27.323 -43.098   7.180  1.00 20.00     0.000 C 
HETATM    7  C15 3BL A 401     -27.184 -43.692   5.807  1.00 20.00     0.002 C 
HETATM    8  C14 3BL A 401     -26.610 -42.713   4.815  1.00 20.00     0.022 C 
HETATM    9  C13 3BL A 401     -26.352 -43.482   3.555  1.00 20.00     0.104 C 
HETATM   10  N   3BL A 401     -25.917 -42.539   2.571  1.00 20.00    -0.316 N 
HETATM   11  C   3BL A 401     -26.531 -42.309   1.448  1.00 20.00     0.257 C 
HETATM   12  O   3BL A 401     -26.290 -41.358   0.778  1.00 20.00    -0.267 OA
ENDROOT
BRANCH  11  13
HETATM   13  C1  3BL A 401     -27.537 -43.313   0.966  1.00 20.00     0.056 A 
HETATM   14  C2  3BL A 401     -27.339 -44.664   1.152  1.00 20.00     0.005 A 
HETATM   15  C3  3BL A 401     -28.249 -45.593   0.696  1.00 20.00     0.000 A 
HETATM   16  C4  3BL A 401     -29.366 -45.149   0.046  1.00 20.00     0.000 A 
HETATM   17  C11 3BL A 401     -29.566 -43.817  -0.146  1.00 20.00     0.000 A 
HETATM   18  C12 3BL A 401     -28.655 -42.892   0.312  1.00 20.00     0.005 A 
BRANCH  16  19
HETATM   19  C5  3BL A 401     -30.374 -46.072  -0.486  1.00 20.00     0.000 A 
HETATM   20  C10 3BL A 401     -30.638 -47.269   0.113  1.00 20.00     0.000 A 
HETATM   21  C9  3BL A 401     -31.589 -48.096  -0.439  1.00 20.00     0.000 A 
HETATM   22  C8  3BL A 401     -32.258 -47.716  -1.574  1.00 20.00     0.000 A 
HETATM   23  C7  3BL A 401     -31.980 -46.516  -2.172  1.00 20.00     0.000 A 
HETATM   24  C6  3BL A 401     -31.033 -45.696  -1.628  1.00 20.00     0.000 A 
ENDBRANCH  16  19
ENDBRANCH  11  13
BRANCH   1  25
HETATM   25  C22 3BL A 401     -23.633 -42.984   2.829  1.00 20.00     0.313 C 
BRANCH  25  26
HETATM   26  N1  3BL A 401     -22.287 -42.400   2.865  1.00 20.00     0.347 N 
BRANCH  26  27
HETATM   27  C23 3BL A 401     -21.389 -42.920   1.821  1.00 20.00     0.326 C 
BRANCH  27  28
HETATM   28  C24 3BL A 401     -21.169 -44.405   2.000  1.00 20.00     0.244 C 
HETATM   29  O1  3BL A 401     -20.833 -45.094   1.062  1.00 20.00    -0.286 OA
ENDBRANCH  27  28
BRANCH  27  30
HETATM   30  C25 3BL A 401     -20.034 -42.266   2.013  1.00 20.00     0.092 C 
BRANCH  30  31
HETATM   31  C26 3BL A 401     -19.754 -41.034   1.235  1.00 20.00     0.082 A 
HETATM   32  N3  3BL A 401     -18.694 -40.266   1.417  1.00 20.00    -0.227 NA
HETATM   33  C28 3BL A 401     -18.744 -39.273   0.551  1.00 20.00     0.199 A 
HETATM   34  N2  3BL A 401     -19.839 -39.395  -0.174  1.00 20.00    -0.221 NA
HETATM   35  C27 3BL A 401     -20.483 -40.486   0.224  1.00 20.00     0.116 A 
ENDBRANCH  30  31
ENDBRANCH  27  30
ENDBRANCH  26  27
ENDBRANCH  25  26
ENDBRANCH   1  25
TORSDOF 8
