5hmy_ligand

Created by X-TOOL on Wed Dec 13 14:19:17 2017
 35 36  0  0  0  0  0  0  0  0999 V2000
   18.0910   60.3600   13.3730  C 0  0  0  3  0  4
   18.0700   61.5180   12.4040  C 0  0  0  1  0  3
   17.8170   62.7980   12.8920  C 0  0  0  2  0  3
   20.4620   60.0360   13.5210  O 0  0  0  1  0  1
   18.4370   67.2990   13.2440  O 0  0  0  1  0  1
   19.7950   65.7330   12.6480  O 0  0  0  1  0  1
   18.0690   62.3810    6.3160  C 0  0  0  2  0  3
   18.9550   61.3220    6.4190  C 0  0  0  1  0  3
   19.3400   60.5450    5.4040  C 0  0  0  1  0  2
   19.6520   59.7580    4.5820  C 0  0  0  1  0  2
   20.0100   58.6840    3.6470  C 0  0  0  3  0  4
   18.2390   61.3110   11.0220  C 0  0  0  2  0  3
   19.3620   60.2450   15.3650  O 0  0  0  1  0  1
   19.3950   60.2140   14.1290  C 0  5  0  1  0  3
   18.2400   62.4080   10.1360  C 0  0  0  1  0  3
   17.9610   63.6860   10.6430  C 0  0  0  2  0  3
   17.7880   63.8880   12.0200  C 0  0  0  1  0  3
   17.4340   65.2650   12.5580  C 0  0  0  3  0  4
   18.6380   66.1460   12.8280  C 0  5  0  1  0  3
   18.3630   62.2310    8.6520  C 0  0  0  1  0  3
   17.7600   62.9130    7.5810  C 0  0  0  2  0  3
   19.2890   60.8890    8.0420  S 0  0  0  1  0  2
   21.2780   58.9550    3.0680  O 0  0  0  2  0  2
   17.9128   59.4330   12.8083  H 0  0  0  1  0  1
   17.2818   60.5056   14.1038  H 0  0  0  1  0  1
   17.6422   62.9481   13.9512  H 0  0  0  1  0  1
   17.6636   62.7540    5.3766  H 0  0  0  1  0  1
   19.2513   58.6228    2.8529  H 0  0  0  1  0  1
   20.0524   57.7273    4.1882  H 0  0  0  1  0  1
   18.3687   60.3057   10.6378  H 0  0  0  1  0  1
   17.8783   64.5263    9.9632  H 0  0  0  1  0  1
   16.8800   65.1373   13.4996  H 0  0  0  1  0  1
   16.7929   65.7707   11.8210  H 0  0  0  1  0  1
   17.1111   63.7767    7.7184  H 0  0  0  1  0  1
   21.5048   58.2575    2.4642  H 0  0  0  1  0  1
  2  1  1  0  0  2
  1 14  1  0  0  2
  2  3  4  0  0  1
 12  2  4  0  0  1
 17  3  4  0  0  1
 14  4  2  0  0  2
 19  5  2  0  0  2
 19  6  2  0  0  2
  7  8  2  0  0  1
 21  7  1  0  0  1
  8  9  1  0  0  2
  8 22  1  0  0  1
  9 10  3  0  0  2
 10 11  1  0  0  2
 11 23  1  0  0  2
 15 12  4  0  0  1
 14 13  2  0  0  2
 15 16  4  0  0  1
 20 15  1  0  0  2
 16 17  4  0  0  1
 17 18  1  0  0  2
 18 19  1  0  0  2
 20 21  2  0  0  1
 20 22  1  0  0  1
  1 24  1  0  0  2
  1 25  1  0  0  2
  3 26  1  0  0  2
  7 27  1  0  0  2
 11 28  1  0  0  2
 11 29  1  0  0  2
 12 30  1  0  0  2
 16 31  1  0  0  2
 18 32  1  0  0  2
 18 33  1  0  0  2
 21 34  1  0  0  2
 23 35  1  0  0  2
M  END
> <MOLECULAR_FORMULA>
C17H12O5S

> <MOLECULAR_WEIGHT>
328.2

> <NUM_HB_ATOMS>
5  

> <NUM_ROTOR>
2  

> <XLOGP2>
1.74 

$$$$
