REMARK  7 active torsions:
REMARK  status: ('A' for Active; 'I' for Inactive)
REMARK    1  A    between atoms: C10_2349  and  N03_2352 
REMARK       I    between atoms: C02_2351  and  N03_2352 
REMARK    2  A    between atoms: C02_2351  and  C24_2372 
REMARK    3  A    between atoms: C04_2353  and  N03_2352 
REMARK    4  A    between atoms: C04_2353  and  C05_2354 
REMARK    5  A    between atoms: C13_2361  and  N14_2362 
REMARK       I    between atoms: C15_2363  and  N14_2362 
REMARK    6  A    between atoms: C15_2363  and  C16_2364 
REMARK    7  A    between atoms: C24_2372  and  N25_2373 
ROOT
HETATM    1  O01 4F4 A 401      -7.367 -21.403  29.108  1.00 23.60    -0.270 OA
HETATM    2  C02 4F4 A 401      -7.306 -22.246  28.243  1.00 23.32     0.262 C 
HETATM    3  N03 4F4 A 401      -6.078 -22.931  28.011  1.00 23.49    -0.298 N 
ENDROOT
BRANCH   3   4
HETATM    4  C04 4F4 A 401      -4.894 -22.640  28.807  1.00 21.92     0.110 C 
BRANCH   4   5
HETATM    5  C05 4F4 A 401      -3.719 -22.481  27.828  1.00 24.37     0.034 A 
HETATM    6  C06 4F4 A 401      -2.739 -23.494  27.516  1.00 24.62     0.059 A 
HETATM    7  S07 4F4 A 401      -1.683 -22.937  26.407  1.00 30.72    -0.140 SA
HETATM    8  C08 4F4 A 401      -2.271 -21.450  26.172  1.00 17.51     0.058 A 
HETATM    9  C09 4F4 A 401      -3.439 -21.226  26.993  1.00 19.15     0.015 A 
ENDBRANCH   4   5
ENDBRANCH   3   4
BRANCH   3  10
HETATM   10  C10 4F4 A 401      -6.013 -23.952  26.978  1.00 21.14     0.062 A 
HETATM   11  C11 4F4 A 401      -5.752 -23.635  25.642  1.00 22.00     0.019 A 
HETATM   12  C12 4F4 A 401      -5.679 -24.668  24.687  1.00 23.01     0.021 A 
HETATM   13  C13 4F4 A 401      -5.899 -25.993  25.086  1.00 23.35     0.085 A 
HETATM   14  C22 4F4 A 401      -6.138 -26.300  26.425  1.00 26.29     0.021 A 
HETATM   15  C23 4F4 A 401      -6.204 -25.270  27.373  1.00 23.93     0.019 A 
BRANCH  13  16
HETATM   16  N14 4F4 A 401      -5.788 -27.066  24.122  1.00 23.77    -0.208 NA
HETATM   17  C15 4F4 A 401      -6.512 -28.305  24.162  1.00 28.99     0.281 C 
HETATM   18  O21 4F4 A 401      -7.350 -28.573  24.996  1.00 32.00    -0.265 OA
BRANCH  17  19
HETATM   19  C16 4F4 A 401      -6.171 -29.309  23.053  1.00 28.78     0.061 A 
HETATM   20  C17 4F4 A 401      -4.928 -29.319  22.326  1.00 28.18     0.038 A 
HETATM   21  C18 4F4 A 401      -4.951 -30.472  21.312  1.00 33.40     0.017 A 
HETATM   22  C19 4F4 A 401      -6.204 -31.174  21.419  1.00 31.97     0.062 A 
HETATM   23  S20 4F4 A 401      -7.131 -30.500  22.564  1.00 37.14    -0.113 SA
ENDBRANCH  17  19
ENDBRANCH  13  16
ENDBRANCH   3  10
BRANCH   2  24
HETATM   24  C24 4F4 A 401      -8.487 -22.603  27.365  1.00 23.92     0.211 C 
BRANCH  24  25
HETATM   25  N25 4F4 A 401      -9.674 -21.935  27.787  1.00 26.00    -0.245 N 
HETATM   26  C26 4F4 A 401     -10.634 -22.515  28.591  1.00 22.08     0.093 A 
HETATM   27  C27 4F4 A 401     -10.732 -23.793  29.201  1.00 25.24     0.020 A 
HETATM   28  C31 4F4 A 401     -11.631 -21.573  28.766  1.00 21.73     0.115 A 
HETATM   29  C28 4F4 A 401     -11.854 -24.108  29.980  1.00 25.37     0.002 A 
HETATM   30  C29 4F4 A 401     -12.867 -23.151  30.165  1.00 27.95     0.002 A 
HETATM   31  C30 4F4 A 401     -12.762 -21.890  29.563  1.00 24.17     0.022 A 
HETATM   32  N32 4F4 A 401     -11.227 -20.442  28.051  1.00 20.32    -0.157 NA
HETATM   33  N33 4F4 A 401     -10.044 -20.688  27.467  1.00 22.79     0.007 NA
ENDBRANCH  24  25
ENDBRANCH   2  24
TORSDOF 7
