4wx6_ligand

Created by X-TOOL on Fri Nov 18 18:03:08 2016
 69 69  0  0  0  0  0  0  0  0999 V2000
   37.1560   42.7860   12.4710  C 0  0  0  2  0  3
   37.7160   43.4290   13.5650  C 0  0  0  1  0  3
   38.9000   42.9540   14.1610  C 0  0  0  2  0  3
   39.4820   39.2770   17.2630  C 0  0  0  2  0  4
   38.2540   39.8750   17.8970  C 0  0  0  1  0  3
   40.5860   38.9970   18.3520  C 0  0  0  1  0  4
   40.2550   37.9080   19.4420  C 0  0  0  4  0  4
   41.9300   38.4980   17.7160  C 0  0  0  4  0  4
   40.7880   40.3790   19.0700  C 0  0  0  4  0  4
   36.3390   39.5020   19.2660  C 0  0  0  3  0  4
   35.9550   38.4590   20.2640  C 0  0  0  1  0  3
   35.0160   37.9850   22.5030  C 0  0  0  3  0  4
   33.4870   38.1270   22.5540  C 0  0  0  3  0  4
   32.9050   39.5420   22.7700  C 0  0  0  3  0  4
   33.9680   39.7940   25.2070  C 0  0  0  4  0  4
   39.5340   41.7960   13.6640  C 0  0  0  1  0  3
   38.9550   41.1490   12.5800  C 0  0  0  2  0  3
   37.7960   41.6550   12.0050  C 0  0  0  1  0  3
   37.1020   40.8470   10.6710 Cl 0  0  0  1  0  1
   36.8890   44.8550   14.1320 Cl 0  0  0  1  0  1
   40.8010   41.1880   14.2910  C 0  0  0  2  0  4
   40.2610   40.0380   15.1080  C 0  0  0  1  0  3
   41.7650   40.6700   13.3100  N 0  3  0  3  0  4
   40.0450   38.9390   14.5990  O 0  0  0  1  0  1
   39.9950   40.3220   16.4050  N 0  0  0  2  0  3
   37.5060   39.0030   18.5750  N 0  0  0  2  0  3
   38.0200   41.0940   17.8160  O 0  0  0  1  0  1
   35.4740   38.9070   21.4660  N 0  0  0  2  0  3
   36.0890   37.2910   19.8870  O 0  0  0  1  0  1
   32.3570   39.8870   24.3860  S 0  0  0  1  0  4
   31.5430   38.7020   24.7210  O 0  0  0  1  0  1
   31.8450   41.2530   24.5760  O 0  0  0  1  0  1
   43.1730   40.6990   13.7360  C 0  0  0  3  0  4
   44.0610   40.6310   12.4570  C 0  0  0  4  0  4
   36.2523   43.1566   12.0009  H 0  0  0  1  0  1
   39.3267   43.4812   15.0066  H 0  0  0  1  0  1
   39.2399   38.3615   16.7033  H 0  0  0  1  0  1
   41.1042   37.8127   20.1347  H 0  0  0  1  0  1
   40.0724   36.9410   18.9506  H 0  0  0  1  0  1
   39.3575   38.2102   20.0016  H 0  0  0  1  0  1
   42.2483   39.2015   16.9326  H 0  0  0  1  0  1
   41.7793   37.5017   17.2749  H 0  0  0  1  0  1
   42.7051   38.4409   18.4944  H 0  0  0  1  0  1
   39.8338   40.7079   19.5074  H 0  0  0  1  0  1
   41.1327   41.1251   18.3389  H 0  0  0  1  0  1
   41.5389   40.2720   19.8667  H 0  0  0  1  0  1
   36.5757   40.4471   19.7767  H 0  0  0  1  0  1
   35.5173   39.6661   18.5533  H 0  0  0  1  0  1
   35.2952   36.9525   22.2462  H 0  0  0  1  0  1
   35.4570   38.2534   23.4743  H 0  0  0  1  0  1
   33.1253   37.4936   23.3774  H 0  0  0  1  0  1
   33.0898   37.7504   21.5999  H 0  0  0  1  0  1
   32.0502   39.6647   22.0887  H 0  0  0  1  0  1
   33.6862   40.2728   22.5136  H 0  0  0  1  0  1
   33.8433   39.9895   26.2823  H 0  0  0  1  0  1
   34.6443   40.5456   24.7737  H 0  0  0  1  0  1
   34.3951   38.7905   25.0639  H 0  0  0  1  0  1
   39.4080   40.2481   12.1821  H 0  0  0  1  0  1
   41.3024   41.9299   14.9298  H 0  0  0  1  0  1
   41.6822   41.2220   12.4707  H 0  0  0  1  0  1
   41.5204   39.7132   13.1084  H 0  0  0  1  0  1
   40.1512   41.2419   16.7647  H 0  0  0  1  0  1
   37.7458   38.0326   18.6042  H 0  0  0  1  0  1
   35.4353   39.8913   21.6383  H 0  0  0  1  0  1
   43.3852   39.8364   14.3848  H 0  0  0  1  0  1
   43.3785   41.6299   14.2848  H 0  0  0  1  0  1
   45.1222   40.6511   12.7459  H 0  0  0  1  0  1
   43.8405   41.4937   11.8112  H 0  0  0  1  0  1
   43.8472   39.7002   11.9112  H 0  0  0  1  0  1
  2  1  4  0  0  1
 18  1  4  0  0  1
  3  2  4  0  0  1
  2 20  1  0  0  2
 16  3  4  0  0  1
  4  5  1  0  0  2
  4  6  1  0  0  2
 25  4  1  0  0  2
  5 26  1  0  0  2
  5 27  2  0  0  2
  6  7  1  0  0  2
  6  8  1  0  0  2
  6  9  1  0  0  2
 10 11  1  0  0  2
 26 10  1  0  0  2
 11 28  1  0  0  2
 11 29  2  0  0  2
 12 13  1  0  0  2
 28 12  1  0  0  2
 13 14  1  0  0  2
 14 30  1  0  0  2
 30 15  1  0  0  2
 16 17  4  0  0  1
 21 16  1  0  0  2
 17 18  4  0  0  1
 18 19  1  0  0  2
 22 21  1  0  0  2
 21 23  1  0  0  2
 22 24  2  0  0  2
 22 25  1  0  0  2
 23 33  1  0  0  2
 30 31  2  0  0  2
 30 32  2  0  0  2
 33 34  1  0  0  2
  1 35  1  0  0  2
  3 36  1  0  0  2
  4 37  1  0  0  2
  7 38  1  0  0  2
  7 39  1  0  0  2
  7 40  1  0  0  2
  8 41  1  0  0  2
  8 42  1  0  0  2
  8 43  1  0  0  2
  9 44  1  0  0  2
  9 45  1  0  0  2
  9 46  1  0  0  2
 10 47  1  0  0  2
 10 48  1  0  0  2
 12 49  1  0  0  2
 12 50  1  0  0  2
 13 51  1  0  0  2
 13 52  1  0  0  2
 14 53  1  0  0  2
 14 54  1  0  0  2
 15 55  1  0  0  2
 15 56  1  0  0  2
 15 57  1  0  0  2
 17 58  1  0  0  2
 21 59  1  0  0  2
 23 60  1  0  0  2
 23 61  1  0  0  2
 25 62  1  0  0  2
 26 63  1  0  0  2
 28 64  1  0  0  2
 33 65  1  0  0  2
 33 66  1  0  0  2
 34 67  1  0  0  2
 34 68  1  0  0  2
 34 69  1  0  0  2
M  END
> <MOLECULAR_FORMULA>
C22H35N4O5SCl2

> <MOLECULAR_WEIGHT>
538.2

> <NUM_HB_ATOMS>
9  

> <NUM_ROTOR>
12 

> <XLOGP2>
2.05 

$$$$
