REMARK  11 active torsions:
REMARK  status: ('A' for Active; 'I' for Inactive)
REMARK    1  A    between atoms: C11@A_2292  and  C12@A_2293 
REMARK    2  A    between atoms: C11@A_2292  and  C16@A_2297 
REMARK    3  A    between atoms: C11@A_2292  and  N10@A_2315 
REMARK    4  A    between atoms: C12@A_2293  and  C13@A_2294 
REMARK       I    between atoms: C16@A_2297  and  N17@A_2316 
REMARK    5  A    between atoms: C18@A_2298  and  C19@A_2299 
REMARK    6  A    between atoms: C18@A_2298  and  C26@A_2304 
REMARK    7  A    between atoms: C18@A_2298  and  N17@A_2316 
REMARK    8  A    between atoms: C19@A_2299  and  C20@A_2300 
REMARK    9  A    between atoms: C06@A_2308  and  C07@A_2309 
REMARK   10  A    between atoms: C07@A_2309  and  O08@A_2318 
REMARK       I    between atoms: C09@A_2310  and  N10@A_2315 
REMARK   11  A    between atoms: C09@A_2310  and  O08@A_2318 
ROOT
HETATM    1  C11AVDJ A 401      20.308  19.106   0.339  0.50 22.33     0.189 C 
ENDROOT
BRANCH   1   2
HETATM    2  C12AVDJ A 401      21.396  18.830   1.398  0.50 23.45     0.034 C 
BRANCH   2   3
HETATM    3  C13AVDJ A 401      22.747  19.396   1.027  0.50 29.24     0.002 C 
HETATM    4  C14AVDJ A 401      23.790  19.166   2.118  0.50 29.69     0.000 C 
HETATM    5  C15AVDJ A 401      23.259  18.792  -0.274  0.50 29.56     0.000 C 
ENDBRANCH   2   3
ENDBRANCH   1   2
BRANCH   1   6
HETATM    6  C16AVDJ A 401      18.980  18.560   0.835  0.50 26.25     0.274 C 
HETATM    7  N17AVDJ A 401      18.510  17.387   0.325  0.50 25.54    -0.236 NA
HETATM    8  O28AVDJ A 401      18.369  19.190   1.691  0.50 28.46    -0.268 OA
BRANCH   7   9
HETATM    9  C18AVDJ A 401      17.241  16.759   0.707  0.50 24.96     0.140 C 
BRANCH   9  10
HETATM   10  C19AVDJ A 401      16.283  16.689  -0.498  0.50 24.30     0.037 C 
BRANCH  10  11
HETATM   11  C20AVDJ A 401      15.897  18.098  -0.967  0.50 23.59     0.085 C 
HETATM   12  C21AVDJ A 401      15.020  18.048  -2.229  0.50 22.99     0.251 C 
HETATM   13  N22AVDJ A 401      13.972  18.913  -2.088  0.50 24.18    -0.238 NA
HETATM   14  O25AVDJ A 401      15.173  17.364  -3.233  0.50 23.84    -0.271 OA
HETATM   15  C23AVDJ A 401      14.011  19.635  -0.809  0.50 24.41     0.129 C 
HETATM   16  C24AVDJ A 401      15.070  18.885   0.038  0.50 23.71     0.036 C 
ENDBRANCH  10  11
ENDBRANCH   9  10
BRANCH   9  17
HETATM   17  C26AVDJ A 401      17.465  15.325   1.254  0.50 22.92     0.206 C 
HETATM   18  O27AVDJ A 401      18.304  15.493   2.360  0.50 26.08    -0.219 OA
ENDBRANCH   9  17
ENDBRANCH   7   9
ENDBRANCH   1   6
BRANCH   1  19
HETATM   19  N10AVDJ A 401      20.180  20.515   0.125  0.50 25.15    -0.205 NA
HETATM   20  C09AVDJ A 401      19.231  20.996  -0.732  0.50 30.26     0.384 C 
HETATM   21  O29AVDJ A 401      18.624  20.286  -1.519  0.50 27.55    -0.236 OA
BRANCH  20  22
HETATM   22  O08AVDJ A 401      18.985  22.324  -0.651  0.50 32.33    -0.284 OA
BRANCH  22  23
HETATM   23  C07AVDJ A 401      18.140  22.868  -1.638  0.50 34.09     0.154 C 
BRANCH  23  24
HETATM   24  C06AVDJ A 401      18.098  24.421  -1.575  0.50 37.93     0.031 C 
HETATM   25  C05AVDJ A 401      19.512  25.002  -1.810  0.50 38.50     0.008 C 
HETATM   26  C04AVDJ A 401      19.551  26.544  -1.791  0.50 42.90     0.067 C 
HETATM   27  C02AVDJ A 401      18.516  27.126  -2.779  0.50 46.46     0.264 C 
HETATM   28  C31AVDJ A 401      17.132  26.542  -2.502  0.50 43.26     0.067 C 
HETATM   29  F01AVDJ A 401      18.496  28.482  -2.717  0.50 51.61    -0.204 F 
HETATM   30  F03AVDJ A 401      18.869  26.891  -4.056  0.50 48.21    -0.204 F 
HETATM   31  C30AVDJ A 401      17.174  25.027  -2.592  0.50 38.67     0.008 C 
ENDBRANCH  23  24
ENDBRANCH  22  23
ENDBRANCH  20  22
ENDBRANCH   1  19
TORSDOF 11
