REMARK  Name = 3v3m_ligand
REMARK  13 active torsions:
REMARK  status: ('A' for Active; 'I' for Inactive)
REMARK    1  A    between atoms: C1_2  and  C4_3
REMARK    2  A    between atoms: N1_8  and  C8_9
REMARK    3  A    between atoms: N1_8  and  C2_19
REMARK    4  A    between atoms: C11_12  and  C14_13
REMARK    5  A    between atoms: C14_13  and  C15_14
REMARK    6  A    between atoms: C14_13  and  C16_15
REMARK    7  A    between atoms: C14_13  and  C17_16
REMARK    8  A    between atoms: C2_19  and  C3_20
REMARK    9  A    between atoms: C2_19  and  C18_27
REMARK   10  A    between atoms: N2_21  and  C23_22
REMARK   11  A    between atoms: C23_22  and  C24_23
REMARK   12  A    between atoms: C23_22  and  C25_24
REMARK   13  A    between atoms: C23_22  and  C26_25
REMARK                            x       y       z     vdW  Elec       q    Type
REMARK                         _______ _______ _______ _____ _____    ______ ____
ROOT
ATOM      1  O1  0EN A   1      21.826 -28.701   0.255  0.00  0.00    -0.368 OA
ATOM      2  C1  0EN A   1      22.625 -28.791  -0.672  0.00  0.00    +0.280 C 
ATOM      3  N1  0EN A   1      23.007 -27.703  -1.398  0.00  0.00    -0.159 N 
ENDROOT
BRANCH   3   4
ATOM      4  C8  0EN A   1      23.960 -27.861  -2.439  0.00  0.00    +0.117 A 
ATOM      5  C9  0EN A   1      23.567 -28.249  -3.725  0.00  0.00    +0.059 A 
ATOM      6  C10 0EN A   1      24.520 -28.405  -4.734  0.00  0.00    +0.028 A 
ATOM      7  C11 0EN A   1      25.880 -28.172  -4.485  0.00  0.00    -0.074 A 
ATOM      8  C12 0EN A   1      26.270 -27.780  -3.194  0.00  0.00    +0.028 A 
ATOM      9  C13 0EN A   1      25.322 -27.630  -2.178  0.00  0.00    +0.059 A 
BRANCH   7  10
ATOM     10  C14 0EN A   1      26.906 -28.343  -5.598  0.00  0.00    -0.068 C 
ATOM     11  C15 0EN A   1      27.804 -27.113  -5.666  0.00  0.00    -0.068 C 
ATOM     12  C16 0EN A   1      26.225 -28.512  -6.955  0.00  0.00    -0.068 C 
ATOM     13  C17 0EN A   1      27.766 -29.584  -5.344  0.00  0.00    -0.068 C 
ENDBRANCH   7  10
ENDBRANCH   3   4
BRANCH   2  14
ATOM     14  C4  0EN A   1      23.141 -30.182  -0.954  0.00  0.00    +0.195 C 
ATOM     15  C5  0EN A   1      24.144 -30.726  -1.745  0.00  0.00    +0.001 C 
ATOM     16  C6  0EN A   1      24.109 -32.095  -1.555  0.00  0.00    -0.019 C 
ATOM     17  C7  0EN A   1      23.099 -32.375  -0.653  0.00  0.00    +0.191 C 
ATOM     18  O3  0EN A   1      22.502 -31.187  -0.274  0.00  0.00    -0.249 OA
ENDBRANCH   2  14
BRANCH   3  19
ATOM     19  C2  0EN A   1      22.540 -26.324  -1.095  0.00  0.00    +0.312 C 
BRANCH  19  20
ATOM     20  C18 0EN A   1      21.068 -26.074  -0.973  0.00  0.00    +0.038 A 
ATOM     21  C19 0EN A   1      20.599 -25.321   0.106  0.00  0.00    +0.033 A 
ATOM     22  C20 0EN A   1      19.227 -25.052   0.229  0.00  0.00    +0.030 A 
ATOM     23  C21 0EN A   1      18.380 -25.553  -0.753  0.00  0.00    +0.081 A 
ATOM     24  N3  0EN A   1      18.848 -26.246  -1.787  0.00  0.00    -0.304 NA
ATOM     25  C22 0EN A   1      20.156 -26.529  -1.926  0.00  0.00    +0.095 A 
ENDBRANCH  19  20
BRANCH  19  26
ATOM     26  C3  0EN A   1      23.105 -25.300  -2.058  0.00  0.00    +0.224 C 
ATOM     27  N2  0EN A   1      24.053 -24.511  -1.522  0.00  0.00    -0.277 N 
ATOM     28  O2  0EN A   1      22.701 -25.260  -3.225  0.00  0.00    -0.390 OA
ATOM     29  H18 0EN A   1      24.262 -24.686  -0.560  0.00  0.00    +0.186 HD
BRANCH  27  30
ATOM     30  C23 0EN A   1      24.825 -23.429  -2.148  0.00  0.00    +0.045 C 
ATOM     31  C24 0EN A   1      24.786 -23.442  -3.672  0.00  0.00    +0.037 C 
ATOM     32  C25 0EN A   1      26.295 -23.512  -1.745  0.00  0.00    +0.037 C 
ATOM     33  C26 0EN A   1      24.286 -22.104  -1.622  0.00  0.00    +0.037 C 
ENDBRANCH  27  30
ENDBRANCH  19  26
ENDBRANCH   3  19
TORSDOF 7
