3v3m_ligand

Created by X-TOOL on Fri Nov 18 17:30:02 2016
 63 65  0  0  0  0  0  0  0  0999 V2000
   21.8260  -28.7010    0.2550  O 0  0  0  1  0  1
   22.6250  -28.7910   -0.6720  C 0  0  0  1  0  3
   23.1410  -30.1820   -0.9540  C 0  0  0  1  0  3
   24.1440  -30.7260   -1.7450  C 0  0  0  2  0  3
   24.1090  -32.0950   -1.5550  C 0  0  0  2  0  3
   23.0990  -32.3750   -0.6530  C 0  0  0  2  0  3
   22.5020  -31.1870   -0.2740  O 0  0  0  1  0  2
   23.0070  -27.7030   -1.3980  N 0  0  0  1  0  3
   23.9600  -27.8610   -2.4390  C 0  0  0  1  0  3
   23.5670  -28.2490   -3.7250  C 0  0  0  2  0  3
   24.5200  -28.4050   -4.7340  C 0  0  0  2  0  3
   25.8800  -28.1720   -4.4850  C 0  0  0  1  0  3
   26.9060  -28.3430   -5.5980  C 0  0  0  1  0  4
   27.8040  -27.1130   -5.6660  C 0  0  0  4  0  4
   26.2250  -28.5120   -6.9550  C 0  0  0  4  0  4
   27.7660  -29.5840   -5.3440  C 0  0  0  4  0  4
   26.2700  -27.7800   -3.1940  C 0  0  0  2  0  3
   25.3220  -27.6300   -2.1780  C 0  0  0  2  0  3
   22.5400  -26.3240   -1.0950  C 0  0  0  2  0  4
   23.1050  -25.3000   -2.0580  C 0  0  0  1  0  3
   24.0530  -24.5110   -1.5220  N 0  0  0  2  0  3
   24.8250  -23.4290   -2.1480  C 0  0  0  1  0  4
   24.7860  -23.4420   -3.6720  C 0  0  0  4  0  4
   26.2950  -23.5120   -1.7450  C 0  0  0  4  0  4
   24.2860  -22.1040   -1.6220  C 0  0  0  4  0  4
   22.7010  -25.2600   -3.2250  O 0  0  0  1  0  1
   21.0680  -26.0740   -0.9730  C 0  0  0  1  0  3
   20.5990  -25.3210    0.1060  C 0  0  0  2  0  3
   19.2270  -25.0520    0.2290  C 0  0  0  2  0  3
   18.3800  -25.5530   -0.7530  C 0  0  0  2  0  3
   18.8480  -26.2460   -1.7870  N 0  0  0  1  0  2
   20.1560  -26.5290   -1.9260  C 0  0  0  2  0  3
   24.8280  -30.1786   -2.3919  H 0  0  0  1  0  1
   24.7620  -32.8245   -2.0318  H 0  0  0  1  0  1
   22.8201  -33.3667   -0.2998  H 0  0  0  1  0  1
   22.5196  -28.4290   -3.9386  H 0  0  0  1  0  1
   24.2034  -28.7108   -5.7246  H 0  0  0  1  0  1
   28.5424  -27.2422   -6.4710  H 0  0  0  1  0  1
   28.3263  -26.9868   -4.7062  H 0  0  0  1  0  1
   27.1913  -26.2225   -5.8699  H 0  0  0  1  0  1
   25.5704  -29.3957   -6.9292  H 0  0  0  1  0  1
   26.9893  -28.6446   -7.7349  H 0  0  0  1  0  1
   25.6248  -27.6176   -7.1780  H 0  0  0  1  0  1
   28.2692  -29.4884   -4.3706  H 0  0  0  1  0  1
   28.5204  -29.6764   -6.1392  H 0  0  0  1  0  1
   27.1263  -30.4788   -5.3397  H 0  0  0  1  0  1
   27.3166  -27.5919   -2.9835  H 0  0  0  1  0  1
   25.6383  -27.3342   -1.1843  H 0  0  0  1  0  1
   22.9614  -26.0973   -0.1045  H 0  0  0  1  0  1
   24.2624  -24.6857   -0.5599  H 0  0  0  1  0  1
   25.3848  -22.6054   -4.0612  H 0  0  0  1  0  1
   23.7454  -23.3380   -4.0131  H 0  0  0  1  0  1
   25.1997  -24.3920   -4.0413  H 0  0  0  1  0  1
   26.8532  -22.6941   -2.2240  H 0  0  0  1  0  1
   26.7100  -24.4779   -2.0687  H 0  0  0  1  0  1
   26.3811  -23.4236   -0.6520  H 0  0  0  1  0  1
   24.8475  -21.2739   -2.0754  H 0  0  0  1  0  1
   24.4003  -22.0698   -0.5285  H 0  0  0  1  0  1
   23.2213  -22.0119   -1.8825  H 0  0  0  1  0  1
   21.2942  -24.9447    0.8478  H 0  0  0  1  0  1
   18.8412  -24.4737    1.0608  H 0  0  0  1  0  1
   17.3137  -25.3747   -0.6740  H 0  0  0  1  0  1
   20.5000  -27.1083   -2.7752  H 0  0  0  1  0  1
  1  2  2  0  0  2
  2  3  1  0  0  2
  2  8  1  0  0  2
  3  4  2  0  0  1
  3  7  1  0  0  1
  4  5  1  0  0  1
  5  6  2  0  0  1
  6  7  1  0  0  1
  8  9  1  0  0  2
  8 19  1  0  0  2
  9 10  4  0  0  1
  9 18  4  0  0  1
 10 11  4  0  0  1
 11 12  4  0  0  1
 12 13  1  0  0  2
 12 17  4  0  0  1
 13 14  1  0  0  2
 13 15  1  0  0  2
 13 16  1  0  0  2
 17 18  4  0  0  1
 19 20  1  0  0  2
 19 27  1  0  0  2
 20 21  1  0  0  2
 20 26  2  0  0  2
 21 22  1  0  0  2
 22 23  1  0  0  2
 22 24  1  0  0  2
 22 25  1  0  0  2
 27 28  4  0  0  1
 27 32  4  0  0  1
 28 29  4  0  0  1
 29 30  4  0  0  1
 30 31  4  0  0  1
 31 32  4  0  0  1
  4 33  1  0  0  2
  5 34  1  0  0  2
  6 35  1  0  0  2
 10 36  1  0  0  2
 11 37  1  0  0  2
 14 38  1  0  0  2
 14 39  1  0  0  2
 14 40  1  0  0  2
 15 41  1  0  0  2
 15 42  1  0  0  2
 15 43  1  0  0  2
 16 44  1  0  0  2
 16 45  1  0  0  2
 16 46  1  0  0  2
 17 47  1  0  0  2
 18 48  1  0  0  2
 19 49  1  0  0  2
 21 50  1  0  0  2
 23 51  1  0  0  2
 23 52  1  0  0  2
 23 53  1  0  0  2
 24 54  1  0  0  2
 24 55  1  0  0  2
 24 56  1  0  0  2
 25 57  1  0  0  2
 25 58  1  0  0  2
 25 59  1  0  0  2
 28 60  1  0  0  2
 29 61  1  0  0  2
 30 62  1  0  0  2
 32 63  1  0  0  2
M  END
> <MOLECULAR_FORMULA>
C26H31N3O3

> <MOLECULAR_WEIGHT>
433.3

> <NUM_HB_ATOMS>
4  

> <NUM_ROTOR>
3  

> <XLOGP2>
4.97 

$$$$
