### 
### Created by X-TOOL on Mon Sep 10 21:13:29 2018
### 

@<TRIPOS>MOLECULE
5lc0_ligand
   74    76     1     0     0
SMALL
GAST_HUCK


@<TRIPOS>ATOM
      1 O24        82.6750   49.8610  152.0880 O.2       1 6T8        -0.3845
      2 C22        81.5620   50.3290  151.9410 C.2       1 6T8         0.2073
      3 C25        80.4340   49.3510  151.7670 C.ar      1 6T8         0.0500
      4 C30        80.7110   48.0420  151.4470 C.ar      1 6T8        -0.0419
      5 C29        79.7190   47.0820  151.3480 C.ar      1 6T8        -0.0562
      6 C28        78.4130   47.4220  151.5690 C.ar      1 6T8        -0.0575
      7 C27        78.0930   48.7220  151.8650 C.ar      1 6T8        -0.0562
      8 C26        79.0940   49.6890  152.0160 C.ar      1 6T8        -0.0419
      9 N21        81.3170   51.6250  152.1480 N.am      1 6T8        -0.2632
     10 C18        82.1960   52.4920  152.8920 C.3       1 6T8         0.1390
     11 C20        81.7650   53.9460  152.7030 C.3       1 6T8         0.0183
     12 C31        81.8760   54.4930  151.2940 C.ar      1 6T8        -0.0452
     13 C36        81.2340   55.7080  151.1020 C.ar      1 6T8        -0.0664
     14 C35        81.2530   56.3390  149.8750 C.ar      1 6T8        -0.0618
     15 C34        81.9230   55.7640  148.8100 C.ar      1 6T8        -0.0054
     16 C37        81.8700   56.5720  147.5360 C.3       1 6T8        -0.0046
     17 N38        82.4940   55.8840  146.4060 N.4       1 6T8         0.2299
     18 C33        82.5820   54.5330  148.9850 C.ar      1 6T8        -0.0618
     19 C32        82.5590   53.8940  150.2260 C.ar      1 6T8        -0.0664
     20 C17        82.1360   52.2280  154.3890 C.2       1 6T8         0.2035
     21 O19        81.1050   52.5060  154.9450 O.2       1 6T8        -0.3944
     22 N2         83.2180   51.8150  155.0780 N.am      1 6T8        -0.2849
     23 C1         83.3230   51.9520  156.5380 C.3       1 6T8         0.0311
     24 B4         84.0680   53.3170  156.8700 B         1 6T8         3.0000
     25 O1         84.1050   53.7160  158.2300 O.3       1 6T8        -0.3924
     26 O3         83.9750   54.3890  155.9430 O.3       1 6T8        -0.3924
     27 C3         84.1030   50.8250  157.2140 C.3       1 6T8        -0.0296
     28 C11        83.1730   49.8510  157.9060 C.3       1 6T8        -0.0180
     29 C12        82.9160   48.6530  157.0180 C.3       1 6T8         0.0626
     30 N13        81.5930   48.1130  157.2750 N.pl3     1 6T8        -0.2723
     31 C14        81.3190   46.8780  157.6750 C.cat     1 6T8         0.2882
     32 N15        82.2470   45.9820  158.0270 N.pl3     1 6T8        -0.2849
     33 N16        80.1010   46.5430  157.6620 N.pl3     1 6T8        -0.2849
     34 C2         83.4040   55.6390  156.3340 C.3       1 6T8         0.0723
     35 C4         83.5930   54.9990  158.6120 C.3       1 6T8         0.0723
     36 C5         82.6060   55.4550  157.5770 C.3       1 6T8         0.1012
     37 O2         81.6210   54.4480  157.3320 O.3       1 6T8        -0.3873
     38 H1         81.7400   47.7530  151.2665 H         1 6T8         0.0669
     39 H2         79.9774   46.0601  151.0951 H         1 6T8         0.0629
     40 H3         77.6358   46.6686  151.5105 H         1 6T8         0.0653
     41 H4         77.0531   49.0042  151.9834 H         1 6T8         0.0629
     42 H5         78.8355   50.6956  152.3242 H         1 6T8         0.0669
     43 H6         80.4789   52.0151  151.7665 H         1 6T8         0.1878
     44 H7         83.2258   52.3509  152.5321 H         1 6T8         0.0822
     45 H8         82.3912   54.5706  153.3570 H         1 6T8         0.0461
     46 H9         80.7133   54.0287  153.0144 H         1 6T8         0.0461
     47 H10        80.7084   56.1695  151.9302 H         1 6T8         0.0540
     48 H11        80.7423   57.2864  149.7455 H         1 6T8         0.0542
     49 H12        82.3944   57.5247  147.7012 H         1 6T8         0.0965
     50 H13        80.8168   56.7711  147.2889 H         1 6T8         0.0965
     51 H14        82.4319   56.4638  145.5838 H         1 6T8         0.2007
     52 H15        82.0172   55.0118  146.2388 H         1 6T8         0.2007
     53 H16        83.4629   55.7024  146.6166 H         1 6T8         0.2007
     54 H17        83.1092   54.0794  148.1535 H         1 6T8         0.0542
     55 H18        83.0640   52.9446  150.3625 H         1 6T8         0.0540
     56 H19        83.9778   51.3999  154.5776 H         1 6T8         0.1851
     57 H20        82.3064   51.9690  156.9578 H         1 6T8         0.0520
     58 H24        84.7864   51.2587  157.9589 H         1 6T8         0.0286
     59 H25        84.6852   50.2852  156.4526 H         1 6T8         0.0286
     60 H26        82.2187   50.3526  158.1245 H         1 6T8         0.0300
     61 H27        83.6339   49.5141  158.8462 H         1 6T8         0.0300
     62 H28        83.6704   47.8795  157.2240 H         1 6T8         0.0689
     63 H29        82.9844   48.9605  155.9641 H         1 6T8         0.0689
     64 H30        80.7936   48.7470  157.1338 H         1 6T8         0.2642
     65 H31        81.9639   45.0387  158.3285 H         1 6T8         0.2615
     66 H32        83.2450   46.2351  157.9967 H         1 6T8         0.2615
     67 H33        79.3812   47.2284  157.3918 H         1 6T8         0.2615
     68 H34        79.8277   45.5844  157.9216 H         1 6T8         0.2615
     69 H35        82.7506   56.0105  155.5309 H         1 6T8         0.0583
     70 H36        84.2076   56.3669  156.5191 H         1 6T8         0.0583
     71 H37        84.4195   55.7219  158.6782 H         1 6T8         0.0583
     72 H38        83.0943   54.9217  159.5894 H         1 6T8         0.0583
     73 H39        82.1216   56.3933  157.8851 H         1 6T8         0.0639
     74 H40        82.0477   53.6584  157.0207 H         1 6T8         0.2100
@<TRIPOS>BOND
     1    1    2 2  
     2    2    3 1  
     3    2    9 am 
     4    3    4 ar 
     5    3    8 ar 
     6    4    5 ar 
     7    5    6 ar 
     8    6    7 ar 
     9    7    8 ar 
    10    9   10 1  
    11   10   11 1  
    12   10   20 1  
    13   11   12 1  
    14   12   13 ar 
    15   12   19 ar 
    16   13   14 ar 
    17   14   15 ar 
    18   15   16 1  
    19   15   18 ar 
    20   16   17 1  
    21   18   19 ar 
    22   20   21 2  
    23   20   22 am 
    24   22   23 1  
    25   23   24 1  
    26   23   27 1  
    27   24   25 1  
    28   24   26 1  
    29   25   35 1  
    30   26   34 1  
    31   27   28 1  
    32   28   29 1  
    33   29   30 1  
    34   30   31 ar 
    35   31   32 ar 
    36   31   33 ar 
    37   34   36 1  
    38   35   36 1  
    39   36   37 1  
    40    4   38 1  
    41    5   39 1  
    42    6   40 1  
    43    7   41 1  
    44    8   42 1  
    45    9   43 1  
    46   10   44 1  
    47   11   45 1  
    48   11   46 1  
    49   13   47 1  
    50   14   48 1  
    51   16   49 1  
    52   16   50 1  
    53   17   51 1  
    54   17   52 1  
    55   17   53 1  
    56   18   54 1  
    57   19   55 1  
    58   22   56 1  
    59   23   57 1  
    60   27   58 1  
    61   27   59 1  
    62   28   60 1  
    63   28   61 1  
    64   29   62 1  
    65   29   63 1  
    66   30   64 1  
    67   32   65 1  
    68   32   66 1  
    69   33   67 1  
    70   33   68 1  
    71   34   69 1  
    72   34   70 1  
    73   35   71 1  
    74   35   72 1  
    75   36   73 1  
    76   37   74 1  
@<TRIPOS>SUBSTRUCTURE
     1 6T8         1

