5lc0_ligand

Created by X-TOOL on Wed Dec 13 14:15:32 2017
 74 76  0  0  0  0  0  0  0  0999 V2000
   82.6750   49.8610  152.0880  O 0  0  0  1  0  1
   81.5620   50.3290  151.9410  C 0  0  0  1  0  3
   80.4340   49.3510  151.7670  C 0  0  0  1  0  3
   80.7110   48.0420  151.4470  C 0  0  0  2  0  3
   79.7190   47.0820  151.3480  C 0  0  0  2  0  3
   78.4130   47.4220  151.5690  C 0  0  0  2  0  3
   78.0930   48.7220  151.8650  C 0  0  0  2  0  3
   79.0940   49.6890  152.0160  C 0  0  0  2  0  3
   81.3170   51.6250  152.1480  N 0  0  0  2  0  3
   82.1960   52.4920  152.8920  C 0  0  0  2  0  4
   81.7650   53.9460  152.7030  C 0  0  0  3  0  4
   81.8760   54.4930  151.2940  C 0  0  0  1  0  3
   81.2340   55.7080  151.1020  C 0  0  0  2  0  3
   81.2530   56.3390  149.8750  C 0  0  0  2  0  3
   81.9230   55.7640  148.8100  C 0  0  0  1  0  3
   81.8700   56.5720  147.5360  C 0  0  0  3  0  4
   82.4940   55.8840  146.4060  N 0  3  0  4  0  4
   82.5820   54.5330  148.9850  C 0  0  0  2  0  3
   82.5590   53.8940  150.2260  C 0  0  0  2  0  3
   82.1360   52.2280  154.3890  C 0  0  0  1  0  3
   81.1050   52.5060  154.9450  O 0  0  0  1  0  1
   83.2180   51.8150  155.0780  N 0  0  0  2  0  3
   83.3230   51.9520  156.5380  C 0  0  0  2  0  4
   84.0680   53.3170  156.8700  B 0  0  0  1  0  3
   84.1050   53.7160  158.2300  O 0  0  0  1  0  2
   83.9750   54.3890  155.9430  O 0  0  0  1  0  2
   84.1030   50.8250  157.2140  C 0  0  0  3  0  4
   83.1730   49.8510  157.9060  C 0  0  0  3  0  4
   82.9160   48.6530  157.0180  C 0  0  0  3  0  4
   81.5930   48.1130  157.2750  N 0  0  0  2  0  3
   81.3190   46.8780  157.6750  C 0  3  0  1  0  3
   82.2470   45.9820  158.0270  N 0  0  0  3  0  3
   80.1010   46.5430  157.6620  N 0  0  0  3  0  3
   83.4040   55.6390  156.3340  C 0  0  0  3  0  4
   83.5930   54.9990  158.6120  C 0  0  0  3  0  4
   82.6060   55.4550  157.5770  C 0  0  0  2  0  4
   81.6210   54.4480  157.3320  O 0  0  0  2  0  2
   81.7400   47.7530  151.2665  H 0  0  0  1  0  1
   79.9774   46.0601  151.0951  H 0  0  0  1  0  1
   77.6358   46.6686  151.5105  H 0  0  0  1  0  1
   77.0531   49.0042  151.9834  H 0  0  0  1  0  1
   78.8355   50.6956  152.3242  H 0  0  0  1  0  1
   80.4789   52.0151  151.7665  H 0  0  0  1  0  1
   83.2258   52.3509  152.5321  H 0  0  0  1  0  1
   82.3912   54.5706  153.3570  H 0  0  0  1  0  1
   80.7133   54.0287  153.0144  H 0  0  0  1  0  1
   80.7084   56.1695  151.9302  H 0  0  0  1  0  1
   80.7423   57.2864  149.7455  H 0  0  0  1  0  1
   82.3944   57.5247  147.7012  H 0  0  0  1  0  1
   80.8168   56.7711  147.2889  H 0  0  0  1  0  1
   82.4319   56.4638  145.5838  H 0  0  0  1  0  1
   82.0172   55.0118  146.2388  H 0  0  0  1  0  1
   83.4629   55.7024  146.6166  H 0  0  0  1  0  1
   83.1092   54.0794  148.1535  H 0  0  0  1  0  1
   83.0640   52.9446  150.3625  H 0  0  0  1  0  1
   83.9778   51.3999  154.5776  H 0  0  0  1  0  1
   82.3064   51.9690  156.9578  H 0  0  0  1  0  1
   84.7864   51.2587  157.9589  H 0  0  0  1  0  1
   84.6852   50.2852  156.4526  H 0  0  0  1  0  1
   82.2187   50.3526  158.1245  H 0  0  0  1  0  1
   83.6339   49.5141  158.8462  H 0  0  0  1  0  1
   83.6704   47.8795  157.2240  H 0  0  0  1  0  1
   82.9844   48.9605  155.9641  H 0  0  0  1  0  1
   80.7936   48.7470  157.1338  H 0  0  0  1  0  1
   81.9639   45.0387  158.3285  H 0  0  0  1  0  1
   83.2450   46.2351  157.9967  H 0  0  0  1  0  1
   79.3812   47.2284  157.3918  H 0  0  0  1  0  1
   79.8277   45.5844  157.9216  H 0  0  0  1  0  1
   82.7506   56.0105  155.5309  H 0  0  0  1  0  1
   84.2076   56.3669  156.5191  H 0  0  0  1  0  1
   84.4195   55.7219  158.6782  H 0  0  0  1  0  1
   83.0943   54.9217  159.5894  H 0  0  0  1  0  1
   82.1216   56.3933  157.8851  H 0  0  0  1  0  1
   82.0477   53.6584  157.0207  H 0  0  0  1  0  1
  1  2  2  0  0  2
  2  3  1  0  0  2
  2  9  1  0  0  2
  3  4  4  0  0  1
  3  8  4  0  0  1
  4  5  4  0  0  1
  5  6  4  0  0  1
  6  7  4  0  0  1
  7  8  4  0  0  1
  9 10  1  0  0  2
 10 11  1  0  0  2
 10 20  1  0  0  2
 11 12  1  0  0  2
 12 13  4  0  0  1
 12 19  4  0  0  1
 13 14  4  0  0  1
 14 15  4  0  0  1
 15 16  1  0  0  2
 15 18  4  0  0  1
 16 17  1  0  0  2
 18 19  4  0  0  1
 20 21  2  0  0  2
 20 22  1  0  0  2
 22 23  1  0  0  2
 23 24  1  0  0  2
 23 27  1  0  0  2
 24 25  1  0  0  1
 24 26  1  0  0  1
 25 35  1  0  0  1
 26 34  1  0  0  1
 27 28  1  0  0  2
 28 29  1  0  0  2
 29 30  1  0  0  2
 30 31  2  0  0  2
 31 32  2  0  0  2
 31 33  2  0  0  2
 34 36  1  0  0  1
 35 36  1  0  0  1
 36 37  1  0  0  2
  4 38  1  0  0  2
  5 39  1  0  0  2
  6 40  1  0  0  2
  7 41  1  0  0  2
  8 42  1  0  0  2
  9 43  1  0  0  2
 10 44  1  0  0  2
 11 45  1  0  0  2
 11 46  1  0  0  2
 13 47  1  0  0  2
 14 48  1  0  0  2
 16 49  1  0  0  2
 16 50  1  0  0  2
 17 51  1  0  0  2
 17 52  1  0  0  2
 17 53  1  0  0  2
 18 54  1  0  0  2
 19 55  1  0  0  2
 22 56  1  0  0  2
 23 57  1  0  0  2
 27 58  1  0  0  2
 27 59  1  0  0  2
 28 60  1  0  0  2
 28 61  1  0  0  2
 29 62  1  0  0  2
 29 63  1  0  0  2
 30 64  1  0  0  2
 32 65  1  0  0  2
 32 66  1  0  0  2
 33 67  1  0  0  2
 33 68  1  0  0  2
 34 69  1  0  0  2
 34 70  1  0  0  2
 35 71  1  0  0  2
 35 72  1  0  0  2
 36 73  1  0  0  2
 37 74  1  0  0  2
M  END
> <MOLECULAR_FORMULA>
C25H37N6O5B

> <MOLECULAR_WEIGHT>
512.1

> <NUM_HB_ATOMS>
11 

> <NUM_ROTOR>
11 

> <XLOGP2>
-0.31

$$$$
