REMARK  3 active torsions:
REMARK  status: ('A' for Active; 'I' for Inactive)
REMARK    1  A    between atoms: C7_2422  and  N4_2419 
REMARK    2  A    between atoms: C7_2422  and  C8_2423 
REMARK    3  A    between atoms: C8_2423  and  S_2424 
ROOT
HETATM    1  O1  MES A2308     -12.942 -42.109  -4.400  0.70 45.85    -0.350 OA
HETATM    2  C2  MES A2308     -11.979 -41.655  -3.442  0.70 45.74     0.166 C 
HETATM    3  C3  MES A2308     -10.912 -40.778  -4.122  0.70 43.24     0.130 C 
HETATM    4  N4  MES A2308     -11.571 -39.723  -4.910  0.70 40.40    -0.363 N 
HETATM    5  C5  MES A2308     -12.744 -40.046  -5.720  0.70 42.37     0.130 C 
HETATM    6  C6  MES A2308     -13.672 -41.012  -4.963  0.70 45.19     0.166 C 
ENDROOT
BRANCH   4   7
HETATM    7  C7  MES A2308     -11.065 -38.342  -4.950  0.70 37.87     0.117 C 
BRANCH   7   8
HETATM    8  C8  MES A2308      -9.588 -38.228  -4.492  0.70 34.41     0.170 C 
BRANCH   8   9
HETATM    9  S   MES A2308      -8.574 -37.081  -5.225  0.70 33.51     0.118 S 
HETATM   10  O1S MES A2308      -9.679 -36.106  -5.462  0.70 32.34    -0.594 OA
HETATM   11  O2S MES A2308      -8.135 -38.076  -6.196  0.70 30.35    -0.594 OA
HETATM   12  O3S MES A2308      -7.835 -36.975  -3.924  0.70 34.79    -0.594 OA
ENDBRANCH   8   9
ENDBRANCH   7   8
ENDBRANCH   4   7
TORSDOF 3
