REMARK  2 active torsions:
REMARK  status: ('A' for Active; 'I' for Inactive)
REMARK    1  A    between atoms: CAE_2407  and  NAF_2405 
REMARK    2  A    between atoms: CAC_2411  and  CAD_2410 
ROOT
HETATM    1  CAE XP1 A2307     -17.769 -42.306 -19.786  1.00 31.98     0.056 A 
HETATM    2  CAJ XP1 A2307     -17.452 -42.565 -21.118  1.00 31.03     0.017 A 
HETATM    3  CAI XP1 A2307     -16.599 -43.626 -21.451  1.00 30.35     0.005 A 
HETATM    4  CAD XP1 A2307     -16.040 -44.424 -20.435  1.00 31.75     0.042 A 
HETATM    5  CAA XP1 A2307     -16.330 -44.180 -19.084  1.00 29.47     0.005 A 
HETATM    6  CAB XP1 A2307     -17.204 -43.127 -18.780  1.00 30.56     0.017 A 
ENDROOT
BRANCH   1   7
HETATM    7  NAF XP1 A2307     -18.606 -41.277 -19.438  1.00 32.36    -0.344 N 
HETATM    8  CAG XP1 A2307     -19.247 -40.362 -20.419  1.00 31.71     0.126 C 
HETATM    9  CAK XP1 A2307     -18.875 -41.049 -18.007  1.00 31.89     0.126 C 
ENDBRANCH   1   7
BRANCH   4  10
HETATM   10  CAC XP1 A2307     -15.101 -45.565 -20.811  1.00 32.12     0.234 C 
HETATM   11  OAH XP1 A2307     -14.640 -46.300 -19.935  1.00 31.57    -0.283 OA
ENDBRANCH   4  10
TORSDOF 2
