REMARK  3 active torsions:
REMARK  status: ('A' for Active; 'I' for Inactive)
REMARK    1  A    between atoms: C1_2497  and  C3_2498 
REMARK       I    between atoms: C1_2497  and  N2_2514 
REMARK    2  A    between atoms: C6_2515  and  N2_2514 
REMARK    3  A    between atoms: C5_2517  and  C6_2515 
ROOT
HETATM    1  C6  TTT A 317     -32.275  21.026  29.064  1.00 37.52     0.129 C 
HETATM    2  C01 TTT A 317     -32.903  20.725  27.691  1.00 38.21     0.031 C 
ENDROOT
BRANCH   1   3
HETATM    3  C5  TTT A 317     -33.003  22.158  29.748  1.00 37.34    -0.000 A 
HETATM    4  C4  TTT A 317     -33.030  23.478  29.220  1.00 36.69    -0.002 A 
HETATM    5  C9  TTT A 317     -33.721  24.543  29.861  1.00 36.68    -0.001 A 
HETATM    6  C12 TTT A 317     -34.430  24.380  31.066  1.00 35.67    -0.004 A 
HETATM    7  C11 TTT A 317     -34.476  23.101  31.694  1.00 37.06    -0.018 A 
HETATM    8  C8  TTT A 317     -33.744  21.908  31.044  1.00 36.44    -0.006 A 
HETATM    9  C18 TTT A 317     -35.199  22.879  32.939  1.00 36.81     0.052 A 
HETATM   10  C14 TTT A 317     -33.787  20.625  31.667  1.00 37.76    -0.001 A 
HETATM   11  C20 TTT A 317     -34.513  20.459  32.894  1.00 38.42    -0.004 A 
HETATM   12  C22 TTT A 317     -35.205  21.571  33.512  1.00 36.43    -0.021 A 
ENDBRANCH   1   3
BRANCH   1  13
HETATM   13  N2  TTT A 317     -30.856  21.361  28.945  1.00 35.54    -0.232 NA
HETATM   14  C1  TTT A 317     -29.991  21.107  29.927  1.00 33.57     0.275 C 
HETATM   15  O7  TTT A 317     -30.323  20.589  30.985  1.00 36.33    -0.266 OA
BRANCH  14  16
HETATM   16  C3  TTT A 317     -28.533  21.413  29.804  1.00 31.66     0.055 A 
HETATM   17  C10 TTT A 317     -27.597  20.263  29.484  1.00 28.67    -0.017 A 
HETATM   18  C16 TTT A 317     -28.134  18.850  29.288  1.00 27.70     0.031 C 
HETATM   19  C17 TTT A 317     -26.213  20.534  29.371  1.00 27.22    -0.003 A 
HETATM   20  C21 TTT A 317     -25.721  21.860  29.554  1.00 28.81     0.021 A 
HETATM   21  C19 TTT A 317     -26.619  22.931  29.852  1.00 29.10     0.103 A 
HETATM   22  C13 TTT A 317     -28.017  22.725  29.980  1.00 29.69     0.025 A 
HETATM   23  N01 TTT A 317     -26.121  24.164  30.016  1.00 32.29    -0.148 N 
ENDBRANCH  14  16
ENDBRANCH   1  13
TORSDOF 3
