#	Name:			4eo8_ligand
#	Creating user name:	suminyi
#	Creation time:		Sun Sep 30 06:50:59 2018

#	Modifying user name:	suminyi
#	Modification time:	Sun Sep 30 06:50:59 2018

@<TRIPOS>MOLECULE
4eo8_ligand
   57    58     1     1     0
SMALL
MMFF94_CHARGES


@<TRIPOS>ATOM
      1 C01         9.1180   33.0520   73.8730 C.2       1 MOL        -0.1500 
      2 C02         7.7630   33.3780   74.1310 C.2       1 MOL         0.0630 
      3 C03         6.9340   33.0430   73.0860 C.2       1 MOL        -0.1920 
      4 S04         7.7630   32.1120   71.8740 S.3       1 MOL        -0.0800 
      5 C05         9.2760   32.3840   72.6890 C.2       1 MOL         0.0600 
      6 C06        10.4850   31.9400   72.0740 C.1       1 MOL        -0.0200 
      7 C07        11.4960   31.5480   71.5150 C.1       1 MOL        -0.2000 
      8 C08        12.6710   31.0360   70.7860 C.3       1 MOL         0.2000 
      9 C09        13.9580   31.6530   71.3750 C.3       1 MOL         0.0000 
     10 C10        12.7270   29.4980   70.9240 C.3       1 MOL         0.0000 
     11 C11        12.5580   31.4140   69.2920 C.3       1 MOL         0.0000 
     12 N12         7.3400   34.1300   75.2220 N.am      1 MOL         0.1240 
     13 C13         7.4220   35.4860   75.3890 C.2       1 MOL         0.5690 
     14 N14         6.7700   33.3580   76.3200 N.4       1 MOL        -0.7030 
     15 C15         7.9610   36.3160   74.2250 C.3       1 MOL         0.0610 
     16 O16         7.1560   35.9660   76.4850 O.2       1 MOL        -0.5700 
     17 C17         7.0520   37.5220   73.8940 C.3       1 MOL         0.0000 
     18 C18         7.6300   38.3160   72.7030 C.3       1 MOL         0.0000 
     19 C19         9.0760   38.7790   72.9830 C.3       1 MOL         0.0000 
     20 C20         9.9910   37.5850   73.3340 C.3       1 MOL         0.0000 
     21 C21         9.4120   36.7760   74.5140 C.3       1 MOL         0.0000 
     22 C22         9.6390   39.5820   71.7980 C.3       1 MOL         0.0000 
     23 C23         5.4200   32.7660   75.9480 C.3       1 MOL         0.5030 
     24 C24         7.7340   32.2870   76.7800 C.3       1 MOL         0.5030 
     25 C25         5.5490   33.4560   72.8730 C.2       1 MOL         1.0320 
     26 O26         4.9560   32.9290   71.9670 O.co2     1 MOL        -0.9000 
     27 O27         5.0600   34.3500   73.5390 O.co2     1 MOL        -0.9000 
     28 H1          9.8980   33.3600   74.5410 H         1 MOL         0.1500 
     29 H2         14.8390   31.3050   70.8320 H         1 MOL         0.0000 
     30 H3         14.0710   31.3700   72.4230 H         1 MOL         0.0000 
     31 H4         13.9290   32.7440   71.3130 H         1 MOL         0.0000 
     32 H5         11.8420   29.0360   70.4770 H         1 MOL         0.0000 
     33 H6         12.7680   29.2020   71.9750 H         1 MOL         0.0000 
     34 H7         13.6100   29.0960   70.4240 H         1 MOL         0.0000 
     35 H8         12.5270   32.5000   69.1700 H         1 MOL         0.0000 
     36 H9         11.6480   30.9980   68.8500 H         1 MOL         0.0000 
     37 H10        13.4110   31.0310   68.7270 H         1 MOL         0.0000 
     38 H11         6.6000   34.0590   77.0760 H         1 MOL         0.4500 
     39 H12         7.9760   35.7050   73.3210 H         1 MOL         0.0000 
     40 H13         6.9600   38.1770   74.7640 H         1 MOL         0.0000 
     41 H14         6.0460   37.1700   73.6440 H         1 MOL         0.0000 
     42 H15         6.9920   39.1790   72.5050 H         1 MOL         0.0000 
     43 H16         7.6300   37.6900   71.8100 H         1 MOL         0.0000 
     44 H17         9.0480   39.4380   73.8440 H         1 MOL         0.0000 
     45 H18        10.9910   37.9450   73.5890 H         1 MOL         0.0000 
     46 H19        10.1000   36.9310   72.4670 H         1 MOL         0.0000 
     47 H20        10.0460   35.9060   74.6950 H         1 MOL         0.0000 
     48 H21         9.4290   37.3920   75.4170 H         1 MOL         0.0000 
     49 H22         9.0010   40.4440   71.5960 H         1 MOL         0.0000 
     50 H23         9.6950   38.9710   70.8940 H         1 MOL         0.0000 
     51 H24        10.6410   39.9520   72.0280 H         1 MOL         0.0000 
     52 H25         4.9930   32.2480   76.8090 H         1 MOL         0.0000 
     53 H26         5.5610   32.0690   75.1190 H         1 MOL         0.0000 
     54 H27         4.7550   33.5760   75.6300 H         1 MOL         0.0000 
     55 H28         7.3100   31.7700   77.6430 H         1 MOL         0.0000 
     56 H29         8.6850   32.7590   77.0320 H         1 MOL         0.0000 
     57 H30         7.8760   31.5870   75.9510 H         1 MOL         0.0000 
@<TRIPOS>BOND
     1    1    2 1    
     2    1    5 2    
     3    2    3 2    
     4    2   12 1    
     5    3    4 1    
     6    3   25 1    
     7    4    5 1    
     8    5    6 1    
     9    6    7 3    
    10    7    8 1    
    11    8    9 1    
    12    8   10 1    
    13    8   11 1    
    14   12   13 am   
    15   12   14 1    
    16   13   15 1    
    17   13   16 2    
    18   14   23 1    
    19   14   24 1    
    20   15   17 1    
    21   15   21 1    
    22   17   18 1    
    23   18   19 1    
    24   19   20 1    
    25   19   22 1    
    26   20   21 1    
    27   25   26 ar   
    28   25   27 ar   
    29    1   28 1    
    30    9   29 1    
    31    9   30 1    
    32    9   31 1    
    33   10   32 1    
    34   10   33 1    
    35   10   34 1    
    36   11   35 1    
    37   11   36 1    
    38   11   37 1    
    39   14   38 1    
    40   15   39 1    
    41   17   40 1    
    42   17   41 1    
    43   18   42 1    
    44   18   43 1    
    45   19   44 1    
    46   20   45 1    
    47   20   46 1    
    48   21   47 1    
    49   21   48 1    
    50   22   49 1    
    51   22   50 1    
    52   22   51 1    
    53   23   52 1    
    54   23   53 1    
    55   23   54 1    
    56   24   55 1    
    57   24   56 1    
    58   24   57 1    
@<TRIPOS>SUBSTRUCTURE
     1 MOL         1 PERM              0 ****  ****    0 ROOT 
@<TRIPOS>NORMAL
@<TRIPOS>ALT_TYPE
MMFF94_ALT_TYPE_SET 
MMFF94 8 CR 9 CR 10 CR 11 CR 15 CR 17 CR 18 CR 19 CR 20 CR 21 CR 22 CR \
23 CR 24 CR 3 C5A 5 C5A 1 C5B 2 C5B 25 CO2M 13 C=ON 6 CSP \
7 CSP 28 HC 29 HC 30 HC 31 HC 32 HC 33 HC 34 HC 35 HC \
36 HC 37 HC 39 HC 40 HC 41 HC 42 HC 43 HC 44 HC 45 HC \
46 HC 47 HC 48 HC 49 HC 50 HC 51 HC 52 HC 53 HC 54 HC \
55 HC 56 HC 57 HC 38 HNR+ 26 O2CM 27 O2CM 16 O=CN 14 NR+ \
12 NC=O 4 STHI 
