REMARK  8 active torsions:
REMARK  status: ('A' for Active; 'I' for Inactive)
REMARK    1  A    between atoms: C14_2370  and  C15_2371 
REMARK    2  A    between atoms: C14_2370  and  N03_2375 
REMARK    3  A    between atoms: C14_2370  and  C22_2388 
REMARK       I    between atoms: C15_2371  and  N16_2383 
REMARK    4  A    between atoms: C17_2372  and  N16_2383 
REMARK       I    between atoms: C02_2374  and  N03_2375 
REMARK    5  A    between atoms: C02_2374  and  C27_2393 
REMARK    6  A    between atoms: C04_2376  and  N03_2375 
REMARK    7  A    between atoms: C07_2379  and  N08_2380 
REMARK       I    between atoms: C09_2381  and  N08_2380 
REMARK    8  A    between atoms: C27_2393  and  N28_2394 
ROOT
HETATM    1  O01 4F5 A 405       7.620 -21.426 -29.471  1.00 46.28    -0.270 OA
HETATM    2  C02 4F5 A 405       7.397 -22.270 -28.628  1.00 54.33     0.262 C 
HETATM    3  N03 4F5 A 405       6.058 -22.750 -28.435  1.00 63.23    -0.291 N 
ENDROOT
BRANCH   3   4
HETATM    4  C04 4F5 A 405       5.749 -23.768 -27.450  1.00 61.01     0.063 A 
HETATM    5  C13 4F5 A 405       5.495 -23.448 -26.116  1.00 52.29     0.019 A 
HETATM    6  C12 4F5 A 405       5.176 -24.473 -25.198  1.00 57.12     0.021 A 
HETATM    7  C07 4F5 A 405       5.120 -25.799 -25.603  1.00 64.60     0.084 A 
HETATM    8  C06 4F5 A 405       5.358 -26.106 -26.953  1.00 65.25     0.021 A 
HETATM    9  C05 4F5 A 405       5.677 -25.094 -27.867  1.00 61.86     0.019 A 
BRANCH   7  10
HETATM   10  N08 4F5 A 405       4.763 -26.817 -24.637  1.00 63.34    -0.212 NA
HETATM   11  C09 4F5 A 405       4.963 -28.234 -24.763  1.00 65.72     0.256 C 
HETATM   12  C10 4F5 A 405       4.480 -29.151 -23.637  1.00 57.80     0.100 C 
HETATM   13  O11 4F5 A 405       5.513 -28.733 -25.729  1.00 70.52    -0.270 OA
ENDBRANCH   7  10
ENDBRANCH   3   4
BRANCH   3  14
HETATM   14  C14 4F5 A 405       4.946 -22.233 -29.248  1.00 63.45     0.169 C 
BRANCH  14  15
HETATM   15  C15 4F5 A 405       4.900 -22.743 -30.700  1.00 66.17     0.272 C 
HETATM   16  N16 4F5 A 405       5.777 -23.854 -31.068  1.00 82.85    -0.240 NA
HETATM   17  O21 4F5 A 405       4.149 -22.194 -31.498  1.00 64.88    -0.269 OA
BRANCH  16  18
HETATM   18  C17 4F5 A 405       5.938 -24.497 -32.364  1.00 91.94     0.088 C 
HETATM   19  C18 4F5 A 405       4.638 -24.691 -33.116  1.00 84.00     0.025 C 
HETATM   20  C19 4F5 A 405       6.552 -25.846 -32.150  1.00 79.06     0.025 C 
HETATM   21  C20 4F5 A 405       6.895 -23.687 -33.198  1.00 82.27     0.025 C 
ENDBRANCH  16  18
ENDBRANCH  14  15
BRANCH  14  22
HETATM   22  C22 4F5 A 405       3.652 -22.294 -28.438  1.00 54.02     0.042 A 
HETATM   23  C23 4F5 A 405       2.658 -23.324 -28.504  1.00 61.02     0.060 A 
HETATM   24  S24 4F5 A 405       1.469 -23.023 -27.448  1.00 73.23    -0.140 SA
HETATM   25  C25 4F5 A 405       2.001 -21.657 -26.783  1.00 56.88     0.058 A 
HETATM   26  C26 4F5 A 405       3.258 -21.275 -27.370  1.00 46.26     0.015 A 
ENDBRANCH  14  22
ENDBRANCH   3  14
BRANCH   2  27
HETATM   27  C27 4F5 A 405       8.527 -22.814 -27.770  1.00 57.10     0.211 C 
BRANCH  27  28
HETATM   28  N28 4F5 A 405       9.777 -22.143 -28.081  1.00 60.20    -0.245 N 
HETATM   29  C29 4F5 A 405      10.745 -22.614 -28.980  1.00 56.18     0.093 A 
HETATM   30  C30 4F5 A 405      10.835 -23.765 -29.798  1.00 52.37     0.020 A 
HETATM   31  C34 4F5 A 405      11.778 -21.679 -28.972  1.00 52.94     0.115 A 
HETATM   32  C31 4F5 A 405      11.961 -23.966 -30.603  1.00 56.94     0.002 A 
HETATM   33  C32 4F5 A 405      13.004 -23.019 -30.600  1.00 45.67     0.002 A 
HETATM   34  C33 4F5 A 405      12.919 -21.885 -29.796  1.00 46.69     0.022 A 
HETATM   35  N35 4F5 A 405      11.402 -20.679 -28.082  1.00 52.67    -0.157 NA
HETATM   36  N36 4F5 A 405      10.192 -20.984 -27.561  1.00 50.85     0.007 NA
ENDBRANCH  27  28
ENDBRANCH   2  27
TORSDOF 8
