REMARK  14 active torsions:
REMARK  status: ('A' for Active; 'I' for Inactive)
REMARK       I    between atoms: C_2325  and  N_2328 
REMARK    1  A    between atoms: N_2328  and  CA_2329 
REMARK    2  A    between atoms: CA_2329  and  CB_2332 
REMARK    3  A    between atoms: CA_2329  and  C_2330 
REMARK       I    between atoms: C_2330  and  N_2335 
REMARK    4  A    between atoms: N_2335  and  CA_2336 
REMARK    5  A    between atoms: C_2337  and  CA_2336 
REMARK    6  A    between atoms: CA_2336  and  CB_2339 
REMARK       I    between atoms: C_2337  and  N_2342 
REMARK    7  A    between atoms: CA_2343  and  N_2342 
REMARK    8  A    between atoms: C_2344  and  CA_2343 
REMARK    9  A    between atoms: CA_2343  and  CB_2346 
REMARK       I    between atoms: C_2344  and  N_2353 
REMARK   10  A    between atoms: CB_2346  and  CG_2347 
REMARK   11  A    between atoms: CA_2354  and  N_2353 
REMARK   12  A    between atoms: C_2361  and  CA_2354 
REMARK   13  A    between atoms: CA_2354  and  CB_2355 
REMARK   14  A    between atoms: CB_2355  and  CG_2356 
ROOT
HETATM    1  CA  ALC C   4       2.228  14.674  -9.722  1.00 26.18     0.186 C 
ENDROOT
BRANCH   1   2
HETATM    2  C   ALC C   4       0.952  15.017  -8.989  1.00 26.61     0.274 C 
HETATM    3  O   ALC C   4       0.194  15.872  -9.453  1.00 28.38    -0.268 OA
HETATM    4  N   HSV C   5       0.705  14.329  -7.884  1.00 26.42    -0.230 NA
BRANCH   4   5
HETATM    5  CA  HSV C   5      -0.537  14.611  -7.133  1.00 26.72     0.176 C 
BRANCH   5   6
HETATM    6  C   HSV C   5      -0.204  15.605  -5.999  1.00 26.18     0.232 C 
HETATM    7  O   HSV C   5      -0.925  15.782  -5.019  1.00 25.98    -0.286 OA
ENDBRANCH   5   6
BRANCH   5   8
HETATM    8  CB  HSV C   5      -1.176  13.291  -6.647  1.00 26.30     0.080 C 
BRANCH   8   9
HETATM    9  CG  HSV C   5      -2.044  12.688  -7.748  1.00 26.38     0.082 A 
HETATM   10  CD2 HSV C   5      -2.518  13.321  -8.818  1.00 27.04     0.116 A 
HETATM   11  NE2 HSV C   5      -3.238  12.464  -9.538  1.00 26.99    -0.221 NA
HETATM   12  CE1 HSV C   5      -3.214  11.291  -8.904  1.00 27.09     0.199 A 
HETATM   13  ND1 HSV C   5      -2.480  11.431  -7.800  1.00 27.14    -0.227 NA
ENDBRANCH   8   9
ENDBRANCH   5   8
ENDBRANCH   4   5
ENDBRANCH   1   2
BRANCH   1  14
HETATM   14  N   ALC C   4       1.807  14.511 -11.114  1.00 26.37    -0.229 NA
ATOM     15  C   VAL C   3       1.258  13.389 -11.596  1.00 28.67     0.274 C 
ATOM     16  O   VAL C   3       1.053  12.355 -10.953  1.00 26.17    -0.268 OA
BRANCH  15  17
ATOM     17  CA  VAL C   3       0.861  13.481 -13.077  1.00 30.26     0.186 C 
BRANCH  17  18
ATOM     18  CB  VAL C   3      -0.685  13.484 -13.237  1.00 30.21     0.032 C 
ATOM     19  CG2 VAL C   3      -1.131  13.328 -14.701  1.00 30.10     0.003 C 
ATOM     20  CG1 VAL C   3      -1.300  14.757 -12.649  1.00 30.08     0.003 C 
ENDBRANCH  17  18
BRANCH  17  21
ATOM     21  N   VAL C   3       1.433  12.354 -13.810  1.00 32.76    -0.229 NA
ATOM     22  C   THR C   2       2.383  12.517 -14.719  1.00 36.87     0.277 C 
ATOM     23  O   THR C   2       2.863  13.603 -15.040  1.00 38.76    -0.268 OA
BRANCH  22  24
ATOM     24  CA  THR C   2       2.827  11.231 -15.413  1.00 38.25     0.216 C 
BRANCH  24  25
ATOM     25  N   THR C   2       2.550  11.426 -16.853  1.00 39.93    -0.228 NA
HETATM   26  C   ACE C   1       1.353  11.160 -17.398  1.00 41.06     0.252 C 
HETATM   27  O   ACE C   1       0.389  10.686 -16.788  1.00 41.38    -0.271 OA
HETATM   28  CH3 ACE C   1       1.243  11.455 -18.895  1.00 41.66     0.100 C 
ENDBRANCH  24  25
BRANCH  24  29
ATOM     29  CB  THR C   2       4.298  10.948 -15.146  1.00 38.33     0.184 C 
ATOM     30  CG2 THR C   2       4.591  10.806 -13.650  1.00 38.24     0.038 C 
ATOM     31  OG1 THR C   2       4.659   9.758 -15.834  1.00 39.80    -0.221 OA
ENDBRANCH  24  29
ENDBRANCH  22  24
ENDBRANCH  17  21
ENDBRANCH  15  17
ENDBRANCH   1  14
BRANCH   1  32
HETATM   32  CB  ALC C   4       3.231  15.836  -9.535  1.00 24.94     0.034 C 
BRANCH  32  33
HETATM   33  CG  ALC C   4       4.588  15.629 -10.238  1.00 23.58     0.002 C 
HETATM   34  CD1 ALC C   4       5.184  14.226  -9.968  1.00 22.16     0.000 C 
HETATM   35  CE1 ALC C   4       6.569  14.067 -10.621  1.00 22.15     0.000 C 
HETATM   36  CZ  ALC C   4       7.558  15.174 -10.163  1.00 22.04     0.000 C 
HETATM   37  CE2 ALC C   4       6.997  16.597 -10.299  1.00 21.14     0.000 C 
HETATM   38  CD2 ALC C   4       5.555  16.730  -9.752  1.00 22.70     0.000 C 
ENDBRANCH  32  33
ENDBRANCH   1  32
TORSDOF 14
