@<TRIPOS>MOLECULE
KIQ_901_2I78
   49    52     0     0     0
SMALL
USER_CHARGES

@<TRIPOS>ATOM
      1 C1        -14.2170   -6.5360   57.9740 C.ar      1 <0>        -0.0172
      2 C2        -12.1940   -4.7730   58.6730 C.ar      1 <0>         0.0119
      3 C3        -21.4930   -4.1640   60.4370 C.3       1 <0>         0.0356
      4 C4        -20.3200   -4.5200   61.3530 C.3       1 <0>         0.0316
      5 C5        -16.8650   -5.7630   58.9570 C.3       1 <0>        -0.0220
      6 C6        -21.6180   -6.3260   62.5190 C.3       1 <0>         0.0728
      7 C7        -16.8440   -6.6380   61.8040 C.3       1 <0>         0.0206
      8 C8        -18.1340   -5.9920   59.7540 C.2       1 <0>        -0.0749
      9 C9        -14.3920   -5.6880   59.0670 C.ar      1 <0>        -0.0006
     10 C10       -13.0330   -6.4970   57.2420 C.ar      1 <0>         0.1588
     11 C11       -13.3710   -4.8180   59.4060 C.ar      1 <0>         0.1299
     12 C12       -12.0170   -5.6250   57.5840 C.ar      1 <0>         0.1611
     13 C13       -22.8210   -5.7130   61.8680 C.2       1 <0>         0.1431
     14 C14       -24.0170   -4.4850   60.6140 C.2       1 <0>         0.2295
     15 C15       -15.6410   -5.7070   59.8670 C.3       1 <0>         0.0335
     16 C16       -15.6920   -6.8860   60.8410 C.3       1 <0>        -0.0129
     17 C17       -18.1330   -6.4410   61.0340 C.2       1 <0>         0.0159
     18 C18       -19.3750   -6.7940   61.7260 C.2       1 <0>         0.2429
     19 C19       -24.4780   -3.4630   59.6160 C.3       1 <0>         0.4503
     20 N1        -14.4730   -7.0730   61.5970 N.4       1 <0>         0.2214
     21 N2        -24.1220   -6.0360   62.1010 N.2       1 <0>        -0.1350
     22 N3        -24.9170   -5.2260   61.2760 N.2       1 <0>        -0.1276
     23 N4        -22.7440   -4.7440   60.9390 N.pl3     1 <0>        -0.2641
     24 N5        -20.3920   -5.9180   61.8220 N.am      1 <0>        -0.2891
     25 O1        -19.4220   -7.9040   62.2380 O.2       1 <0>        -0.2703
     26 F1        -12.8630   -7.3060   56.1900 F         1 <0>        -0.2025
     27 F2        -13.5090   -4.0080   60.4530 F         1 <0>        -0.2051
     28 F3        -10.8680   -5.6140   56.8660 F         1 <0>        -0.2024
     29 F4        -25.7320   -3.1950   59.9180 F         1 <0>        -0.1633
     30 F5        -23.7790   -2.3390   59.7030 F         1 <0>        -0.1633
     31 F6        -24.4150   -3.9670   58.3890 F         1 <0>        -0.1633
     32 H1        -15.0011   -7.2242   57.6947 H         1 <0>         0.0651
     33 H2        -11.4143   -4.0774   58.9463 H         1 <0>         0.0676
     34 H3        -21.5965   -3.0696   60.3967 H         1 <0>         0.0484
     35 H4        -21.2938   -4.5593   59.4300 H         1 <0>         0.0484
     36 H5        -19.3826   -4.3841   60.7937 H         1 <0>         0.0480
     37 H6        -20.3416   -3.8536   62.2279 H         1 <0>         0.0480
     38 H7        -16.7395   -6.5901   58.2427 H         1 <0>         0.0315
     39 H8        -16.9512   -4.8082   58.4177 H         1 <0>         0.0315
     40 H9        -21.5654   -5.9924   63.5659 H         1 <0>         0.0543
     41 H10       -21.7066   -7.4218   62.4808 H         1 <0>         0.0543
     42 H11       -16.9501   -7.5043   62.4736 H         1 <0>         0.0370
     43 H12       -16.6337   -5.7354   62.3965 H         1 <0>         0.0370
     44 H13       -19.0831   -5.7882   59.2806 H         1 <0>         0.0577
     45 H14       -15.6489   -4.7755   60.4521 H         1 <0>         0.0408
     46 H15       -15.8278   -7.8032   60.2492 H         1 <0>         0.0859
     47 H16       -13.7123   -7.2364   60.9688 H         1 <0>         0.1997
     48 H17       -14.2876   -6.2530   62.1385 H         1 <0>         0.1997
     49 H18       -14.5763   -7.8589   62.2067 H         1 <0>         0.1997
@<TRIPOS>BOND
     1    1    9 ar
     2    1   10 ar
     3    2   11 ar
     4    2   12 ar
     5    3    4 1
     6    3   23 1
     7    4   24 1
     8    5    8 1
     9    5   15 1
    10    6   13 1
    11    6   24 1
    12    7   16 1
    13    7   17 1
    14    8   17 2
    15    9   11 ar
    16    9   15 1
    17   10   12 ar
    18   10   26 1
    19   11   27 1
    20   12   28 1
    21   13   21 2
    22   13   23 1
    23   14   19 1
    24   14   22 2
    25   14   23 1
    26   15   16 1
    27   16   20 1
    28   17   18 1
    29   18   24 am
    30   18   25 2
    31   19   29 1
    32   19   30 1
    33   19   31 1
    34   21   22 1
    35    1   32 1
    36    2   33 1
    37    3   34 1
    38    3   35 1
    39    4   36 1
    40    4   37 1
    41    5   38 1
    42    5   39 1
    43    6   40 1
    44    6   41 1
    45    7   42 1
    46    7   43 1
    47    8   44 1
    48   15   45 1
    49   16   46 1
    50   20   47 1
    51   20   48 1
    52   20   49 1
