@<TRIPOS>MOLECULE
189_A1001_1XL2
   85    88     0     0     0
SMALL
USER_CHARGES

@<TRIPOS>ATOM
      1 C1         15.9140   -2.4450   20.8570 C.3       1 <0>        -0.0373
      2 C2         20.3470   -0.4540   22.3950 C.3       1 <0>        -0.0373
      3 C3         21.3860   -5.8570   14.9790 C.3       1 <0>        -0.0612
      4 C4         23.1790   -5.9100   13.2320 C.3       1 <0>        -0.0612
      5 C5         14.5590   -5.0290   18.9980 C.ar      1 <0>        -0.0617
      6 C6         26.0680   -1.1390   19.7510 C.ar      1 <0>        -0.0616
      7 C7         14.6830   -3.9100   18.1710 C.ar      1 <0>        -0.0615
      8 C8         15.6710   -5.8380   19.2510 C.ar      1 <0>        -0.0615
      9 C9         26.4500   -2.2280   18.9650 C.ar      1 <0>        -0.0599
     10 C10        24.7160   -0.8240   19.9140 C.ar      1 <0>        -0.0599
     11 C11        17.4160   -1.9710   24.3020 C.ar      1 <0>        -0.0611
     12 C12        15.9150   -3.5740   17.6010 C.ar      1 <0>        -0.0571
     13 C13        16.9020   -5.4980   18.6830 C.ar      1 <0>        -0.0571
     14 C14        25.4790   -2.9990   18.3130 C.ar      1 <0>        -0.0351
     15 C15        23.7410   -1.6060   19.2910 C.ar      1 <0>        -0.0351
     16 C16        16.5750   -2.3710   23.2620 C.ar      1 <0>        -0.0564
     17 C17        18.5560   -1.2230   24.0000 C.ar      1 <0>        -0.0564
     18 C18        20.2550   -1.6010   13.7960 C.3       1 <0>        -0.0288
     19 C19        21.0770   -0.0800   15.4540 C.3       1 <0>        -0.0288
     20 C20        18.4000   -4.0190   17.2860 C.3       1 <0>         0.0398
     21 C21        18.7420   -1.9770   15.7650 C.3       1 <0>         0.0232
     22 C22        22.5800   -2.0850   15.5420 C.3       1 <0>         0.0378
     23 C23        23.4340   -4.3570   15.1980 C.3       1 <0>         0.0319
     24 C24        18.9710   -2.2630   19.5060 C.3       1 <0>         0.1304
     25 C25        16.9230   -2.0620   21.9370 C.ar      1 <0>        -0.0202
     26 C26        19.0010   -1.1100   22.6860 C.ar      1 <0>        -0.0202
     27 C27        17.0300   -4.3640   17.8750 C.ar      1 <0>        -0.0301
     28 C28        24.1330   -2.6800   18.4860 C.ar      1 <0>         0.1084
     29 C29        18.1400   -1.4550   21.6290 C.ar      1 <0>         0.0826
     30 C30        20.1220   -2.2850   15.1680 C.3       1 <0>         0.0240
     31 C31        21.2000   -1.5260   15.9860 C.3       1 <0>         0.0252
     32 C32        22.4450   -5.0190   14.2330 C.3       1 <0>        -0.0296
     33 C33        18.6720   -1.8320   18.0830 C.2       1 <0>         0.2422
     34 N1         20.4910   -0.1720   14.1090 N.4       1 <0>         0.2275
     35 N2         18.5820   -2.6080   17.0740 N.am      1 <0>        -0.2948
     36 N3         22.7330   -3.4390   16.0970 N.pl3     1 <0>        -0.2334
     37 O1         18.6090   -0.6030   17.9570 O.2       1 <0>        -0.2730
     38 O2         23.3830   -5.0300   17.8990 O.2       1 <0>        -0.1501
     39 O3         21.6560   -3.3080   18.4110 O.2       1 <0>        -0.1501
     40 O4         18.5740   -1.1800   20.3460 O.3       1 <0>        -0.3350
     41 S1         22.8810   -3.6740   17.6700 S.o2      1 <0>         0.0706
     42 H1         15.2211   -1.6075   20.6883 H         1 <0>         0.0278
     43 H2         16.4468   -2.6739   19.9223 H         1 <0>         0.0278
     44 H3         15.3472   -3.3298   21.1822 H         1 <0>         0.0278
     45 H4         21.1273   -1.2271   22.3367 H         1 <0>         0.0278
     46 H5         20.2927    0.0848   21.4376 H         1 <0>         0.0278
     47 H6         20.5917    0.2536   23.2008 H         1 <0>         0.0278
     48 H7         20.8550   -5.2192   15.7010 H         1 <0>         0.0233
     49 H8         20.6671   -6.2679   14.2549 H         1 <0>         0.0233
     50 H9         21.8808   -6.6816   15.5130 H         1 <0>         0.0233
     51 H10        23.9353   -5.3163   12.6976 H         1 <0>         0.0233
     52 H11        23.6719   -6.7346   13.7679 H         1 <0>         0.0233
     53 H12        22.4582   -6.3209   12.5098 H         1 <0>         0.0233
     54 H13        13.6042   -5.2692   19.4419 H         1 <0>         0.0618
     55 H14        26.8218   -0.5364   20.2359 H         1 <0>         0.0618
     56 H15        13.8170   -3.2970   17.9694 H         1 <0>         0.0618
     57 H16        15.5800   -6.7136   19.8767 H         1 <0>         0.0618
     58 H17        27.4958   -2.4763   18.8595 H         1 <0>         0.0618
     59 H18        24.4262    0.0217   20.5200 H         1 <0>         0.0618
     60 H19        17.1886   -2.2358   25.3240 H         1 <0>         0.0618
     61 H20        16.0014   -2.7122   16.9559 H         1 <0>         0.0621
     62 H21        17.7654   -6.1191   18.8706 H         1 <0>         0.0621
     63 H22        25.7690   -3.8286   17.6853 H         1 <0>         0.0637
     64 H23        22.6934   -1.3832   19.4298 H         1 <0>         0.0637
     65 H24        15.6653   -2.9130   23.4744 H         1 <0>         0.0621
     66 H25        19.0970   -0.7279   24.7929 H         1 <0>         0.0621
     67 H26        21.0928   -2.0241   13.2224 H         1 <0>         0.0817
     68 H27        19.3399   -1.7296   13.1993 H         1 <0>         0.0817
     69 H28        20.4305    0.5174   16.1137 H         1 <0>         0.0817
     70 H29        22.0670    0.3973   15.4089 H         1 <0>         0.0817
     71 H30        19.1743   -4.3659   17.9861 H         1 <0>         0.0514
     72 H31        18.4977   -4.5295   16.3165 H         1 <0>         0.0514
     73 H32        18.6373   -0.8879   15.8787 H         1 <0>         0.0469
     74 H33        17.9659   -2.3609   15.0865 H         1 <0>         0.0469
     75 H34        22.6311   -2.1239   14.4439 H         1 <0>         0.0483
     76 H35        23.3841   -1.4349   15.9171 H         1 <0>         0.0483
     77 H36        23.9328   -5.1354   15.7940 H         1 <0>         0.0480
     78 H37        24.1818   -3.7949   14.6193 H         1 <0>         0.0480
     79 H38        18.4085   -3.1737   19.7593 H         1 <0>         0.0662
     80 H39        20.0440   -2.4724   19.6281 H         1 <0>         0.0662
     81 H40        20.2357   -3.3789   15.1443 H         1 <0>         0.0373
     82 H41        21.0926   -1.6077   17.0777 H         1 <0>         0.0373
     83 H42        21.9312   -4.2073   13.6972 H         1 <0>         0.0311
     84 H43        21.1190    0.2225   13.4382 H         1 <0>         0.2014
     85 H44        19.6255    0.3282   14.0817 H         1 <0>         0.2014
@<TRIPOS>BOND
     1    1   25 1
     2    2   26 1
     3    3   32 1
     4    4   32 1
     5    5    7 ar
     6    5    8 ar
     7    6    9 ar
     8    6   10 ar
     9    7   12 ar
    10    8   13 ar
    11    9   14 ar
    12   10   15 ar
    13   11   16 ar
    14   11   17 ar
    15   12   27 ar
    16   13   27 ar
    17   14   28 ar
    18   15   28 ar
    19   16   25 ar
    20   17   26 ar
    21   18   30 1
    22   18   34 1
    23   19   31 1
    24   19   34 1
    25   20   27 1
    26   20   35 1
    27   21   30 1
    28   21   35 1
    29   22   31 1
    30   22   36 1
    31   23   32 1
    32   23   36 1
    33   24   33 1
    34   24   40 1
    35   25   29 ar
    36   26   29 ar
    37   28   41 1
    38   29   40 1
    39   30   31 1
    40   33   35 am
    41   33   37 2
    42   36   41 1
    43   38   41 2
    44   39   41 2
    45    1   42 1
    46    1   43 1
    47    1   44 1
    48    2   45 1
    49    2   46 1
    50    2   47 1
    51    3   48 1
    52    3   49 1
    53    3   50 1
    54    4   51 1
    55    4   52 1
    56    4   53 1
    57    5   54 1
    58    6   55 1
    59    7   56 1
    60    8   57 1
    61    9   58 1
    62   10   59 1
    63   11   60 1
    64   12   61 1
    65   13   62 1
    66   14   63 1
    67   15   64 1
    68   16   65 1
    69   17   66 1
    70   18   67 1
    71   18   68 1
    72   19   69 1
    73   19   70 1
    74   20   71 1
    75   20   72 1
    76   21   73 1
    77   21   74 1
    78   22   75 1
    79   22   76 1
    80   23   77 1
    81   23   78 1
    82   24   79 1
    83   24   80 1
    84   30   81 1
    85   31   82 1
    86   32   83 1
    87   34   84 1
    88   34   85 1
