REMARK  15 active torsions:
REMARK  status: ('A' for Active; 'I' for Inactive)
REMARK    1  A    between atoms: C3_1619  and  O8_1624 
REMARK    2  A    between atoms: C10_1626  and  O8_1624 
REMARK       I    between atoms: C10_1626  and  N11_1627 
REMARK    3  A    between atoms: C13_1629  and  N11_1627 
REMARK    4  A    between atoms: C13_1629  and  C15_1631 
REMARK    5  A    between atoms: C13_1629  and  C14_1630 
REMARK    6  A    between atoms: C14_1630  and  C16_1632 
REMARK    7  A    between atoms: C15_1631  and  C17_1633 
REMARK    8  A    between atoms: C17_1633  and  N21_1637 
REMARK    9  A    between atoms: C25_1641  and  N21_1637 
REMARK   10  A    between atoms: N21_1637  and  S24_1640 
REMARK   11  A    between atoms: C27_1643  and  S24_1640 
REMARK   12  A    between atoms: C25_1641  and  C30_1646 
REMARK   13  A    between atoms: C26_1642  and  O31_1647 
REMARK   14  A    between atoms: C36_1652  and  O31_1647 
REMARK   15  A    between atoms: C36_1652  and  C39_1655 
ROOT
HETATM    1  C13 385 A 101     -20.897  38.038   0.534  1.00 32.55     0.145 C 
ENDROOT
BRANCH   1   2
HETATM    2  C15 385 A 101     -21.175  36.569   0.026  1.00 30.45     0.198 C 
HETATM    3  O18 385 A 101     -20.030  35.790   0.222  1.00 27.22    -0.219 OA
BRANCH   2   4
HETATM    4  C17 385 A 101     -21.583  36.457  -1.436  1.00 32.47     0.148 C 
BRANCH   4   5
HETATM    5  N21 385 A 101     -22.824  37.137  -1.667  1.00 37.05    -0.272 N 
BRANCH   5   6
HETATM    6  C25 385 A 101     -23.985  36.269  -1.769  1.00 36.72     0.113 C 
BRANCH   6   7
HETATM    7  C30 385 A 101     -24.953  36.237  -0.569  1.00 34.61     0.023 C 
HETATM    8  C34 385 A 101     -26.415  36.224  -1.062  1.00 34.98     0.002 C 
HETATM    9  C35 385 A 101     -24.688  37.326   0.516  1.00 33.32     0.002 C 
ENDBRANCH   6   7
ENDBRANCH   5   6
BRANCH   5  10
HETATM   10  S24 385 A 101     -22.818  38.626  -2.604  1.00 39.67     0.264 S 
HETATM   11  O28 385 A 101     -21.660  39.429  -2.331  1.00 43.15    -0.200 OA
HETATM   12  O29 385 A 101     -23.940  39.476  -2.283  1.00 40.14    -0.200 OA
BRANCH  10  13
HETATM   13  C27 385 A 101     -22.872  38.247  -4.270  1.00 36.79     0.105 A 
HETATM   14  C32 385 A 101     -24.107  37.951  -4.876  1.00 37.32     0.039 A 
HETATM   15  C37 385 A 101     -24.162  37.628  -6.242  1.00 40.48     0.120 A 
HETATM   16  C40 385 A 101     -22.968  37.582  -7.018  1.00 40.23     0.119 A 
HETATM   17  O41 385 A 101     -25.215  37.312  -7.020  1.00 44.40    -0.299 OA
HETATM   18  C38 385 A 101     -21.724  37.888  -6.413  1.00 40.21     0.027 A 
HETATM   19  O44 385 A 101     -23.272  37.252  -8.299  1.00 41.77    -0.300 OA
HETATM   20  C33 385 A 101     -21.676  38.212  -5.032  1.00 38.37     0.015 A 
HETATM   21  C45 385 A 101     -24.700  37.064  -8.347  1.00 45.33     0.304 A 
ENDBRANCH  10  13
ENDBRANCH   5  10
ENDBRANCH   4   5
ENDBRANCH   2   4
ENDBRANCH   1   2
BRANCH   1  22
HETATM   22  N11 385 A 101     -20.844  38.053   1.997  1.00 27.48    -0.211 NA
HETATM   23  C10 385 A 101     -21.607  38.659   2.934  1.00 26.50     0.384 C 
HETATM   24  O12 385 A 101     -22.551  39.359   2.620  1.00 20.05    -0.236 OA
BRANCH  23  25
HETATM   25  O8  385 A 101     -21.295  38.464   4.251  1.00 25.39    -0.283 OA
BRANCH  25  26
HETATM   26  C3  385 A 101     -21.777  39.196   5.352  1.00 28.08     0.161 C 
HETATM   27  C1  385 A 101     -20.784  40.290   5.880  1.00 31.79     0.089 C 
HETATM   28  C4  385 A 101     -19.552  40.706   5.021  1.00 33.67     0.040 C 
HETATM   29  C2  385 A 101     -20.151  39.672   7.109  1.00 33.47     0.238 C 
HETATM   30  C9  385 A 101     -18.514  39.593   5.380  1.00 34.33     0.145 C 
HETATM   31  O6  385 A 101     -18.847  39.158   6.723  1.00 36.59    -0.331 OA
HETATM   32  O5  385 A 101     -21.011  38.620   7.585  1.00 31.58    -0.328 OA
HETATM   33  C7  385 A 101     -21.974  38.255   6.550  1.00 30.03     0.175 C 
ENDBRANCH  25  26
ENDBRANCH  23  25
ENDBRANCH   1  22
BRANCH   1  34
HETATM   34  C14 385 A 101     -19.603  38.757  -0.032  1.00 38.22     0.053 C 
BRANCH  34  35
HETATM   35  C16 385 A 101     -19.078  39.975   0.629  1.00 44.17    -0.020 A 
HETATM   36  C19 385 A 101     -17.879  39.929   1.411  1.00 45.75    -0.002 A 
HETATM   37  C22 385 A 101     -17.396  41.119   2.070  1.00 50.73     0.024 A 
HETATM   38  C26 385 A 101     -18.130  42.341   1.942  1.00 54.15     0.095 A 
HETATM   39  C23 385 A 101     -19.327  42.389   1.155  1.00 52.02     0.024 A 
HETATM   40  C20 385 A 101     -19.796  41.214   0.508  1.00 48.17    -0.002 A 
BRANCH  38  41
HETATM   41  O31 385 A 101     -17.693  43.448   2.572  1.00 58.64    -0.324 OA
BRANCH  41  42
HETATM   42  C36 385 A 101     -17.752  43.733   3.956  1.00 65.47     0.195 C 
BRANCH  42  43
HETATM   43  C39 385 A 101     -17.998  45.230   4.233  1.00 69.55     0.096 A 
HETATM   44  C43 385 A 101     -18.505  46.092   3.279  1.00 70.86     0.054 A 
HETATM   45  S47 385 A 101     -18.631  47.682   3.959  1.00 73.78    -0.070 SA
HETATM   46  C46 385 A 101     -18.001  47.083   5.478  1.00 72.62     0.088 A 
HETATM   47  N42 385 A 101     -17.732  45.807   5.437  1.00 71.36    -0.245 NA
HETATM   48  C48 385 A 101     -17.791  47.956   6.701  1.00 72.55     0.059 C 
ENDBRANCH  42  43
ENDBRANCH  41  42
ENDBRANCH  38  41
ENDBRANCH  34  35
ENDBRANCH   1  34
TORSDOF 15
