5wre_ligand

Created by X-TOOL on Fri Aug 31 19:37:05 2018
 52 55  0  0  0  0  0  0  0  0999 V2000
  -42.9450   12.0000   24.5770  C 0  0  0  4  0  4
  -43.1410   10.8720   25.4380  O 0  0  0  1  0  2
  -43.2850   11.0360   26.7930  C 0  0  0  1  0  3
  -43.1100   12.2260   27.1270  O 0  0  0  1  0  1
  -43.5880    9.9950   27.7640  C 0  0  0  1  0  3
  -44.0220   10.2460   29.0470  C 0  0  0  1  0  3
  -44.2440    9.1880   29.9730  N 0  0  0  2  0  3
  -44.1730    7.8660   29.5310  C 0  0  0  1  0  3
  -43.9270    7.5620   28.2960  N 0  0  0  1  0  2
  -43.7170    8.5580   27.1980  C 0  0  0  2  0  4
  -45.0220    8.3710   26.2790  C 0  0  0  1  0  3
  -46.3130    8.4910   26.8100  C 0  0  0  2  0  3
  -47.5060    8.3550   26.0700  C 0  0  0  2  0  3
  -47.4000    8.0710   24.7180  C 0  0  0  1  0  3
  -46.1660    7.9200   24.1080  C 0  0  0  2  0  3
  -45.0290    8.0780   24.9330  C 0  0  0  1  0  3
  -43.4260    7.8780   24.1870 Cl 0  0  0  1  0  1
  -48.5510    7.9430   24.0510  F 0  0  0  1  0  1
  -44.4590    6.7310   30.5670  C 0  0  0  1  0  3
  -44.5350    6.7470   31.8880  N 0  0  0  1  0  2
  -44.8860    5.4840   32.4970  C 0  0  0  2  0  3
  -45.1150    4.4740   31.5740  C 0  0  0  2  0  3
  -44.8860    5.1170   29.9670  S 0  0  0  1  0  2
  -44.2340   11.6000   29.7680  C 0  0  0  3  0  4
  -44.9750   11.5180   31.0640  N 0  3  0  2  0  4
  -46.3930   11.2020   30.8120  C 0  0  0  3  0  4
  -46.9540   11.3500   32.2040  C 0  0  0  1  0  4
  -46.0290   12.3240   32.9560  C 0  0  0  3  0  4
  -44.9160   12.6590   31.9640  C 0  0  0  2  0  4
  -43.5500   13.0200   32.6410  C 0  5  0  1  0  3
  -43.3270   14.1500   33.1630  O 0  0  0  1  0  1
  -42.6990   12.0890   32.5940  O 0  0  0  1  0  1
  -47.0500   10.1470   32.8540  F 0  0  0  1  0  1
  -48.2550   11.7120   32.1570  F 0  0  0  1  0  1
  -42.8530   11.6554   23.5364  H 0  0  0  1  0  1
  -42.0268   12.5300   24.8703  H 0  0  0  1  0  1
  -43.8047   12.6808   24.6631  H 0  0  0  1  0  1
  -44.4550    9.3959   30.9595  H 0  0  0  1  0  1
  -42.8084    8.3193   26.6257  H 0  0  0  1  0  1
  -46.4016    8.7044   27.8691  H 0  0  0  1  0  1
  -48.4744    8.4690   26.5436  H 0  0  0  1  0  1
  -46.0765    7.6923   23.0520  H 0  0  0  1  0  1
  -44.9630    5.3396   33.5736  H 0  0  0  1  0  1
  -45.3922    3.4483   31.8126  H 0  0  0  1  0  1
  -44.7986   12.2607   29.0937  H 0  0  0  1  0  1
  -43.2452   12.0384   29.9678  H 0  0  0  1  0  1
  -44.5695   10.7432   31.5653  H 0  0  0  1  0  1
  -46.5200   10.1788   30.4288  H 0  0  0  1  0  1
  -46.8506   11.9155   30.1109  H 0  0  0  1  0  1
  -45.6139   11.8461   33.8556  H 0  0  0  1  0  1
  -46.5770   13.2334   33.2435  H 0  0  0  1  0  1
  -45.2061   13.5532   31.3928  H 0  0  0  1  0  1
  1  2  1  0  0  2
  2  3  1  0  0  2
  3  4  2  0  0  2
  3  5  1  0  0  2
  5  6  2  0  0  1
  5 10  1  0  0  1
  6  7  1  0  0  1
  6 24  1  0  0  2
  7  8  1  0  0  1
  8  9  2  0  0  1
  8 19  1  0  0  2
  9 10  1  0  0  1
 10 11  1  0  0  2
 11 12  4  0  0  1
 11 16  4  0  0  1
 12 13  4  0  0  1
 13 14  4  0  0  1
 14 15  4  0  0  1
 14 18  1  0  0  2
 15 16  4  0  0  1
 16 17  1  0  0  2
 19 20  2  0  0  1
 19 23  1  0  0  1
 20 21  1  0  0  1
 21 22  2  0  0  1
 22 23  1  0  0  1
 24 25  1  0  0  2
 25 26  1  0  0  1
 25 29  1  0  0  1
 26 27  1  0  0  1
 27 28  1  0  0  1
 27 33  1  0  0  2
 27 34  1  0  0  2
 28 29  1  0  0  1
 29 30  1  0  0  2
 30 31  2  0  0  2
 30 32  2  0  0  2
  1 35  1  0  0  2
  1 36  1  0  0  2
  1 37  1  0  0  2
  7 38  1  0  0  2
 10 39  1  0  0  2
 12 40  1  0  0  2
 13 41  1  0  0  2
 15 42  1  0  0  2
 21 43  1  0  0  2
 22 44  1  0  0  2
 24 45  1  0  0  2
 24 46  1  0  0  2
 25 47  1  0  0  2
 26 48  1  0  0  2
 26 49  1  0  0  2
 28 50  1  0  0  2
 28 51  1  0  0  2
 29 52  1  0  0  2
M  END
> <MOLECULAR_FORMULA>
C21H18N4O4SF3Cl

> <MOLECULAR_WEIGHT>
514.8

> <NUM_HB_ATOMS>
8  

> <NUM_ROTOR>
4  

> <XLOGP2>
3.30 

$$$$
