REMARK  8 active torsions:
REMARK  status: ('A' for Active; 'I' for Inactive)
REMARK    1  A    between atoms: C3_2  and  C7_4 
REMARK    2  A    between atoms: C7_4  and  C8_31 
REMARK    3  A    between atoms: C8_31  and  C9_5 
REMARK       I    between atoms: C15_10  and  N2_17 
REMARK    4  A    between atoms: C15_10  and  C16_19 
REMARK    5  A    between atoms: C17_20  and  C18_11 
REMARK    6  A    between atoms: C14_16  and  N2_17 
REMARK    7  A    between atoms: C16_19  and  C17_20 
REMARK    8  A    between atoms: C17_20  and  C24_21 
ROOT
HETATM    1  C9  CN4 A 101     -22.833  14.892  -7.919  1.00 17.42     0.023 A 
HETATM    2  C10 CN4 A 101     -21.800  14.317  -8.641  1.00 19.77     0.138 A 
HETATM    3  C11 CN4 A 101     -20.559  14.885  -8.800  1.00 19.14     0.029 A 
HETATM    4  C12 CN4 A 101     -20.324  16.128  -8.233  1.00 17.93     0.004 A 
HETATM    5  C13 CN4 A 101     -21.313  16.761  -7.497  1.00 17.03     0.019 A 
HETATM    6  F2  CN4 A 101     -22.057  13.151  -9.275  1.00 23.09    -0.204 F 
HETATM    7  C14 CN4 A 101     -22.549  16.145  -7.325  1.00 15.44     0.083 A 
ENDROOT
BRANCH   7   8
HETATM    8  N2  CN4 A 101     -23.513  16.776  -6.499  1.00 16.03    -0.212 NA
HETATM    9  C15 CN4 A 101     -23.919  16.301  -5.299  1.00 18.19     0.256 C 
HETATM   10  O2  CN4 A 101     -23.568  15.216  -4.845  1.00 17.34    -0.270 OA
BRANCH   9  11
HETATM   11  C16 CN4 A 101     -24.896  17.197  -4.562  1.00 16.88     0.099 C 
BRANCH  11  12
HETATM   12  C17 CN4 A 101     -24.559  17.203  -3.060  1.00 17.03     0.054 C 
BRANCH  12  13
HETATM   13  C18 CN4 A 101     -25.504  18.054  -2.216  1.00 17.20    -0.018 A 
HETATM   14  C23 CN4 A 101     -25.435  17.971  -0.827  1.00 18.72    -0.002 A 
HETATM   15  C22 CN4 A 101     -26.230  18.771  -0.017  1.00 22.97     0.029 A 
HETATM   16  C21 CN4 A 101     -27.100  19.650  -0.623  1.00 23.55     0.140 A 
HETATM   17  C20 CN4 A 101     -27.215  19.762  -1.991  1.00 22.04     0.029 A 
HETATM   18  F   CN4 A 101     -27.881  20.446   0.169  1.00 25.67    -0.204 F 
HETATM   19  C19 CN4 A 101     -26.410  18.952  -2.784  1.00 20.77    -0.002 A 
ENDBRANCH  12  13
BRANCH  12  20
HETATM   20  C24 CN4 A 101     -23.099  17.545  -2.769  1.00 18.31    -0.018 A 
HETATM   21  C29 CN4 A 101     -22.563  18.796  -3.083  1.00 19.51    -0.002 A 
HETATM   22  C28 CN4 A 101     -21.238  19.099  -2.804  1.00 17.65     0.029 A 
HETATM   23  C27 CN4 A 101     -20.461  18.126  -2.201  1.00 19.62     0.140 A 
HETATM   24  C26 CN4 A 101     -20.944  16.884  -1.874  1.00 18.55     0.029 A 
HETATM   25  F1  CN4 A 101     -19.158  18.403  -1.935  1.00 21.10    -0.204 F 
HETATM   26  C25 CN4 A 101     -22.271  16.597  -2.166  1.00 17.95    -0.002 A 
ENDBRANCH  12  20
ENDBRANCH  11  12
ENDBRANCH   9  11
ENDBRANCH   7   8
BRANCH   1  27
HETATM   27  C8  CN4 A 101     -24.213  14.264  -7.856  1.00 18.81     0.032 C 
BRANCH  27  28
HETATM   28  C7  CN4 A 101     -24.268  12.961  -7.054  1.00 18.17     0.030 C 
BRANCH  28  29
HETATM   29  C3  CN4 A 101     -25.705  12.446  -6.979  1.00 21.35     0.116 C 
HETATM   30  C2  CN4 A 101     -25.797  11.007  -6.477  1.00 22.13     0.143 C 
HETATM   31  N   CN4 A 101     -25.721  10.946  -4.983  1.00 19.65    -0.293 NA
HETATM   32  C1  CN4 A 101     -26.643  11.962  -4.206  1.00 22.12     0.121 C 
HETATM   33  C   CN4 A 101     -26.324  13.374  -4.706  1.00 21.89     0.137 C 
HETATM   34  C6  CN4 A 101     -28.166  11.553  -4.310  1.00 24.56     0.027 C 
HETATM   35  N1  CN4 A 101     -26.616  13.296  -6.157  1.00 22.74    -0.276 N 
HETATM   36  S   CN4 A 101     -27.947  14.000  -6.772  1.00 24.97     0.243 S 
HETATM   37  C4  CN4 A 101     -29.187  12.902  -6.256  1.00 23.58     0.144 C 
HETATM   38  O   CN4 A 101     -28.154  15.277  -6.164  1.00 25.12    -0.205 OA
HETATM   39  O1  CN4 A 101     -27.829  13.913  -8.194  1.00 26.60    -0.205 OA
HETATM   40  C5  CN4 A 101     -29.237  12.544  -4.779  1.00 24.35     0.021 C 
ENDBRANCH  28  29
ENDBRANCH  27  28
ENDBRANCH   1  27
TORSDOF 8
