REMARK  4 active torsions:
REMARK  status: ('A' for Active; 'I' for Inactive)
REMARK    1  A    between atoms: O5_5  and  C20_20 
REMARK       I    between atoms: N10_10  and  C23_23 
REMARK    2  A    between atoms: N10_10  and  C24_24 
REMARK    3  A    between atoms: C21_21  and  C23_23 
REMARK    4  A    between atoms: C24_24  and  C25_25 
ROOT
ATOM      1  O3  UNK d           5.400  -2.059  -0.179  0.00  0.00    -0.365 OA
ATOM      2  O4  UNK d           3.904   2.357   0.394  0.00  0.00    -0.266 OA
ATOM      3  O6  UNK d          -1.147   1.731   0.486  0.00  0.00    -0.284 OA
ATOM      4  N8  UNK d           4.632   0.224  -0.136  0.00  0.00    -0.314 N 
ATOM      5  N9  UNK d           2.061  -0.746   0.485  0.00  0.00    -0.345 N 
ATOM      6  C11 UNK d           4.290  -1.179  -0.394  0.00  0.00     0.244 C 
ATOM      7  C12 UNK d           5.943   0.714  -0.598  0.00  0.00     0.088 C 
ATOM      8  C13 UNK d           7.035  -0.339  -0.407  0.00  0.00     0.051 C 
ATOM      9  C14 UNK d           3.204  -1.644   0.562  0.00  0.00     0.182 C 
ATOM     10  C15 UNK d           6.567  -1.693  -0.903  0.00  0.00     0.172 C 
ATOM     11  C16 UNK d           3.655   1.164   0.221  0.00  0.00     0.276 C 
ATOM     12  C17 UNK d           2.247   0.634   0.366  0.00  0.00     0.141 A 
ATOM     13  C18 UNK d           5.858   1.182  -2.056  0.00  0.00     0.032 C 
ATOM     14  C19 UNK d           0.772  -1.240   0.630  0.00  0.00     0.113 A 
ATOM     15  C20 UNK d           1.217   1.509   0.358  0.00  0.00     0.150 A 
ATOM     16  C21 UNK d          -0.338  -0.492   0.641  0.00  0.00     0.100 A 
ATOM     17  C22 UNK d          -0.178   0.978   0.494  0.00  0.00     0.224 A 
ENDROOT
BRANCH  16  18
ATOM     18  C23 UNK d          -1.631  -1.157   0.798  0.00  0.00     0.257 C 
ATOM     19  O7  UNK d          -1.810  -2.305   0.388  0.00  0.00    -0.267 OA
ATOM     20  N10 UNK d          -2.574  -0.366   1.435  0.00  0.00    -0.352 N 
ATOM     21  H44 UNK d          -2.324   0.568   1.745  0.00  0.00     0.163 HD
BRANCH  20  22
ATOM     22  C24 UNK d          -3.926  -0.800   1.705  0.00  0.00     0.164 C 
BRANCH  22  23
ATOM     23  C25 UNK d          -4.850  -0.508   0.559  0.00  0.00    -0.002 A 
ATOM     24  C26 UNK d          -5.292   0.796   0.332  0.00  0.00     0.127 A 
ATOM     25  F1  UNK d          -4.897   1.795   1.132  0.00  0.00    -0.205 F 
ATOM     26  C28 UNK d          -6.151   1.065  -0.734  0.00  0.00     0.085 A 
ATOM     27  C30 UNK d          -6.568   0.031  -1.573  0.00  0.00     0.119 A 
ATOM     28  F2  UNK d          -7.392   0.290  -2.596  0.00  0.00    -0.206 F 
ATOM     29  C29 UNK d          -6.125  -1.272  -1.346  0.00  0.00     0.043 A 
ATOM     30  C27 UNK d          -5.266  -1.542  -0.280  0.00  0.00     0.015 A 
ENDBRANCH  22  23
ENDBRANCH  20  22
ENDBRANCH  16  18
BRANCH  15  31
ATOM     31  O5  UNK d           1.360   2.871   0.216  0.00  0.00    -0.355 OA
ATOM     32  H43 UNK d           2.292   3.095   0.075  0.00  0.00     0.218 HD
ENDBRANCH  15  31
TORSDOF 4
