REMARK  16 active torsions:
REMARK  status: ('A' for Active; 'I' for Inactive)
REMARK    1  A    between atoms: N3_3  and  C13_13 
REMARK    2  A    between atoms: C6_6  and  C37_37 
REMARK    3  A    between atoms: C13_13  and  C14_14 
REMARK    4  A    between atoms: C13_13  and  C17_17 
REMARK       I    between atoms: C14_14  and  N15_15 
REMARK    5  A    between atoms: N15_15  and  C16_16 
REMARK    6  A    between atoms: C16_16  and  C27_27 
REMARK    7  A    between atoms: C16_16  and  C28_28 
REMARK    8  A    between atoms: C25_25  and  C27_27 
REMARK    9  A    between atoms: C28_28  and  C29_29 
REMARK   10  A    between atoms: C29_29  and  C30_30 
REMARK   11  A    between atoms: C29_29  and  O36_36 
REMARK   12  A    between atoms: C30_30  and  N31_31 
REMARK   13  A    between atoms: C30_30  and  C37_37 
REMARK       I    between atoms: N31_31  and  C32_32 
REMARK   14  A    between atoms: C32_32  and  C33_33 
REMARK   15  A    between atoms: C33_33  and  O34_34 
REMARK   16  A    between atoms: O34_34  and  C35_35 
ROOT
ATOM      1  C1  UNK d          -8.080   1.420  -1.368  0.00  0.00     0.126 C 
ATOM      2  C2  UNK d          -6.591  -0.544  -1.711  0.00  0.00     0.130 C 
ATOM      3  N3  UNK d          -5.463   0.351  -1.450  0.00  0.00    -0.320 N 
ATOM      4  C4  UNK d          -5.652   1.648  -1.166  0.00  0.00     0.319 C 
ATOM      5  N5  UNK d          -6.871   2.208  -1.125  0.00  0.00    -0.343 N 
ATOM      6  O12 UNK d          -4.681   2.346  -0.947  0.00  0.00    -0.247 OA
ATOM      7  C46 UNK d          -7.744   0.263  -2.316  0.00  0.00     0.040 C 
ATOM      8  H51 UNK d          -6.952   3.154  -0.927  0.00  0.00     0.164 HD
ENDROOT
BRANCH   3   9
ATOM      9  C13 UNK d          -4.099  -0.182  -1.493  0.00  0.00     0.184 C 
BRANCH   9  10
ATOM     10  C14 UNK d          -3.491  -0.121  -0.116  0.00  0.00     0.241 C 
ATOM     11  N15 UNK d          -2.284  -0.673   0.114  0.00  0.00    -0.354 N 
ATOM     12  H58 UNK d          -1.765  -1.030  -0.625  0.00  0.00     0.162 HD
ATOM     13  O20 UNK d          -4.089   0.427   0.787  0.00  0.00    -0.271 OA
BRANCH  11  14
ATOM     14  C16 UNK d          -1.754  -0.736   1.478  0.00  0.00     0.091 C 
BRANCH  14  15
ATOM     15  C27 UNK d          -1.996  -2.131   2.056  0.00  0.00     0.063 C 
BRANCH  15  16
ATOM     16  C25 UNK d          -3.478  -2.368   2.193  0.00  0.00    -0.056 A 
ATOM     17  C24 UNK d          -4.127  -2.028   3.365  0.00  0.00     0.007 A 
ATOM     18  C23 UNK d          -5.487  -2.241   3.489  0.00  0.00     0.001 A 
ATOM     19  C22 UNK d          -6.197  -2.802   2.444  0.00  0.00     0.000 A 
ATOM     20  C21 UNK d          -5.547  -3.147   1.273  0.00  0.00     0.001 A 
ATOM     21  C26 UNK d          -4.188  -2.930   1.148  0.00  0.00     0.007 A 
ENDBRANCH  15  16
ENDBRANCH  14  15
BRANCH  14  22
ATOM     22  C28 UNK d          -0.251  -0.447   1.455  0.00  0.00     0.059 C 
BRANCH  22  23
ATOM     23  C29 UNK d          -0.019   1.014   1.065  0.00  0.00     0.143 C 
BRANCH  23  24
ATOM     24  C30 UNK d           1.469   1.346   1.197  0.00  0.00     0.117 C 
BRANCH  24  25
ATOM     25  N31 UNK d           2.244   0.474   0.311  0.00  0.00    -0.352 N 
ATOM     26  C32 UNK d           3.536   0.208   0.589  0.00  0.00     0.242 C 
ATOM     27  O38 UNK d           4.056   0.690   1.573  0.00  0.00    -0.271 OA
ATOM     28  H78 UNK d           1.828   0.089  -0.476  0.00  0.00     0.163 HD
BRANCH  26  29
ATOM     29  C33 UNK d           4.334  -0.689  -0.322  0.00  0.00     0.278 C 
BRANCH  29  30
ATOM     30  O34 UNK d           5.665  -0.817   0.181  0.00  0.00    -0.341 OA
BRANCH  30  31
ATOM     31  C35 UNK d           6.333  -1.632  -0.677  0.00  0.00     0.081 A 
ATOM     32  C39 UNK d           7.010  -1.094  -1.761  0.00  0.00    -0.028 A 
ATOM     33  C40 UNK d           7.688  -1.924  -2.632  0.00  0.00     0.009 A 
ATOM     34  C45 UNK d           7.007   0.396  -1.989  0.00  0.00     0.051 C 
ATOM     35  C41 UNK d           7.692  -3.291  -2.424  0.00  0.00     0.001 A 
ATOM     36  C42 UNK d           7.018  -3.830  -1.344  0.00  0.00     0.009 A 
ATOM     37  C43 UNK d           6.343  -3.003  -0.467  0.00  0.00    -0.028 A 
ATOM     38  C44 UNK d           5.608  -3.591   0.710  0.00  0.00     0.051 C 
ENDBRANCH  30  31
ENDBRANCH  29  30
ENDBRANCH  26  29
ENDBRANCH  24  25
BRANCH  24  39
ATOM     39  C37 UNK d           1.702   2.807   0.806  0.00  0.00     0.066 C 
BRANCH  39  40
ATOM     40  C6  UNK d           3.144   3.169   1.052  0.00  0.00    -0.056 A 
ATOM     41  C7  UNK d           4.081   2.994   0.052  0.00  0.00     0.007 A 
ATOM     42  C8  UNK d           5.404   3.326   0.278  0.00  0.00     0.001 A 
ATOM     43  C9  UNK d           5.789   3.834   1.504  0.00  0.00     0.000 A 
ATOM     44  C10 UNK d           4.851   4.011   2.505  0.00  0.00     0.001 A 
ATOM     45  C11 UNK d           3.528   3.682   2.277  0.00  0.00     0.007 A 
ENDBRANCH  39  40
ENDBRANCH  24  39
ENDBRANCH  23  24
BRANCH  23  46
ATOM     46  O36 UNK d          -0.434   1.217  -0.287  0.00  0.00    -0.393 OA
ATOM     47  H81 UNK d           0.096   0.623  -0.835  0.00  0.00     0.210 HD
ENDBRANCH  23  46
ENDBRANCH  22  23
ENDBRANCH  14  22
ENDBRANCH  11  14
ENDBRANCH   9  10
BRANCH   9  48
ATOM     48  C17 UNK d          -3.256   0.652  -2.460  0.00  0.00     0.010 C 
ATOM     49  C18 UNK d          -1.882   0.000  -2.632  0.00  0.00     0.012 C 
ATOM     50  C19 UNK d          -3.959   0.724  -3.817  0.00  0.00     0.012 C 
ENDBRANCH   9  48
ENDBRANCH   3   9
TORSDOF 16
