REMARK  12 active torsions:
REMARK  status: ('A' for Active; 'I' for Inactive)
REMARK    1  A    between atoms: S1_1  and  C23_23 
REMARK    2  A    between atoms: S1_1  and  C29_29 
REMARK    3  A    between atoms: O3_3  and  C20_20 
REMARK    4  A    between atoms: O5_5  and  C34_34 
REMARK    5  A    between atoms: N6_6  and  C18_18 
REMARK       I    between atoms: N7_7  and  C19_19 
REMARK    6  A    between atoms: N7_7  and  C22_22 
REMARK    7  A    between atoms: N8_8  and  C21_21 
REMARK       I    between atoms: N8_8  and  C27_27 
REMARK    8  A    between atoms: C15_15  and  C19_19 
REMARK    9  A    between atoms: C18_18  and  C20_20 
REMARK   10  A    between atoms: C20_20  and  C21_21 
REMARK   11  A    between atoms: C21_21  and  C23_23 
REMARK   12  A    between atoms: C27_27  and  C28_28 
ROOT
ATOM      1  C20 UNK d           0.475   0.860   1.882  0.00  0.00     0.170 C 
ENDROOT
BRANCH   1   2
ATOM      2  O3  UNK d           1.130   0.592   3.123  0.00  0.00    -0.392 OA
ATOM      3  H61 UNK d           2.069   0.820   3.012  0.00  0.00     0.210 HD
ENDBRANCH   1   2
BRANCH   1   4
ATOM      4  C18 UNK d          -1.020   0.549   2.043  0.00  0.00     0.307 C 
BRANCH   4   5
ATOM      5  N6  UNK d          -1.769   0.778   0.807  0.00  0.00     0.105 N 
ATOM      6  C12 UNK d          -2.142   2.192   0.645  0.00  0.00     0.278 C 
ATOM      7  C10 UNK d          -3.281   2.651   1.573  0.00  0.00     0.018 C 
ATOM      8  C9  UNK d          -4.532   1.771   1.393  0.00  0.00    -0.006 C 
ATOM      9  C14 UNK d          -3.608   4.142   1.389  0.00  0.00     0.007 C 
ATOM     10  C11 UNK d          -4.159   0.281   1.495  0.00  0.00     0.050 C 
ATOM     11  C13 UNK d          -5.299   2.098   0.101  0.00  0.00     0.005 C 
ATOM     12  C15 UNK d          -2.915  -0.133   0.694  0.00  0.00     0.314 C 
ATOM     13  C16 UNK d          -5.638   3.582   0.006  0.00  0.00     0.000 C 
ATOM     14  C17 UNK d          -4.385   4.444   0.111  0.00  0.00     0.000 C 
BRANCH  12  15
ATOM     15  C19 UNK d          -3.215  -0.316  -0.765  0.00  0.00     0.252 C 
ATOM     16  O2  UNK d          -2.602   0.299  -1.635  0.00  0.00    -0.271 OA
ATOM     17  N7  UNK d          -4.245  -1.215  -0.980  0.00  0.00    -0.351 N 
ATOM     18  H59 UNK d          -4.618  -1.735  -0.192  0.00  0.00     0.163 HD
BRANCH  17  19
ATOM     19  C22 UNK d          -4.741  -1.549  -2.296  0.00  0.00     0.022 C 
ATOM     20  C24 UNK d          -5.877  -2.570  -2.165  0.00  0.00     0.037 C 
ATOM     21  C25 UNK d          -5.262  -0.277  -2.973  0.00  0.00     0.037 C 
ATOM     22  C26 UNK d          -3.603  -2.151  -3.128  0.00  0.00     0.037 C 
ENDBRANCH  17  19
ENDBRANCH  12  15
ENDBRANCH   4   5
ENDBRANCH   1   4
BRANCH   1  23
ATOM     23  C21 UNK d           1.184   0.066   0.760  0.00  0.00     0.124 C 
BRANCH  23  24
ATOM     24  N8  UNK d           2.565   0.479   0.627  0.00  0.00    -0.349 N 
ATOM     25  C27 UNK d           2.947   1.533  -0.185  0.00  0.00     0.252 C 
ATOM     26  O4  UNK d           2.181   2.213  -0.863  0.00  0.00    -0.268 OA
ATOM     27  H64 UNK d           3.268  -0.011   1.173  0.00  0.00     0.163 HD
BRANCH  25  28
ATOM     28  C28 UNK d           4.405   1.815  -0.234  0.00  0.00     0.040 A 
ATOM     29  C30 UNK d           5.114   1.751  -1.433  0.00  0.00    -0.013 A 
ATOM     30  C34 UNK d           6.483   2.021  -1.449  0.00  0.00     0.072 A 
ATOM     31  C35 UNK d           4.416   1.394  -2.707  0.00  0.00     0.052 C 
ATOM     32  C39 UNK d           7.141   2.355  -0.265  0.00  0.00     0.037 A 
ATOM     33  C36 UNK d           6.432   2.418   0.934  0.00  0.00     0.004 A 
ATOM     34  C31 UNK d           5.064   2.148   0.950  0.00  0.00     0.018 A 
BRANCH  30  35
ATOM     35  O5  UNK d           7.193   1.964  -2.610  0.00  0.00    -0.360 OA
ATOM     36  H85 UNK d           8.123   2.181  -2.425  0.00  0.00     0.217 HD
ENDBRANCH  30  35
ENDBRANCH  25  28
ENDBRANCH  23  24
BRANCH  23  37
ATOM     37  C23 UNK d           1.096  -1.447   1.018  0.00  0.00     0.107 C 
BRANCH  37  38
ATOM     38  S1  UNK d           1.907  -2.415  -0.295  0.00  0.00    -0.128 SA
BRANCH  38  39
ATOM     39  C29 UNK d           1.637  -4.085   0.286  0.00  0.00     0.000 A 
ATOM     40  C32 UNK d           0.947  -4.305   1.478  0.00  0.00     0.018 A 
ATOM     41  C37 UNK d           0.737  -5.608   1.931  0.00  0.00     0.001 A 
ATOM     42  C40 UNK d           1.216  -6.689   1.192  0.00  0.00     0.000 A 
ATOM     43  C38 UNK d           1.906  -6.469   0.000  0.00  0.00     0.001 A 
ATOM     44  C33 UNK d           2.116  -5.167  -0.453  0.00  0.00     0.018 A 
ENDBRANCH  38  39
ENDBRANCH  37  38
ENDBRANCH  23  37
ENDBRANCH   1  23
TORSDOF 12
