REMARK  7 active torsions:
REMARK  status: ('A' for Active; 'I' for Inactive)
REMARK    1  A    between atoms: O2_2  and  C20_20 
REMARK    2  A    between atoms: N7_7  and  C13_13 
REMARK       I    between atoms: N7_7  and  C21_21 
REMARK       I    between atoms: N10_10  and  C22_22 
REMARK    3  A    between atoms: N10_10  and  C24_24 
REMARK    4  A    between atoms: C13_13  and  C14_14 
REMARK    5  A    between atoms: C18_18  and  C22_22 
REMARK    6  A    between atoms: C21_21  and  C23_23 
REMARK    7  A    between atoms: C24_24  and  C25_25 
ROOT
ATOM      1  O3  UNK d          -1.113  -4.407  -1.238  0.00  0.00    -0.265 OA
ATOM      2  N8  UNK d          -1.368  -2.510   0.110  0.00  0.00    -0.302 N 
ATOM      3  N9  UNK d           0.533  -1.164   0.586  0.00  0.00    -0.224 NA
ATOM      4  C14 UNK d          -0.733  -1.422   0.704  0.00  0.00     0.137 A 
ATOM      5  C17 UNK d          -0.650  -3.417  -0.674  0.00  0.00     0.284 A 
ATOM      6  C18 UNK d           1.274  -2.026  -0.175  0.00  0.00     0.165 A 
ATOM      7  C19 UNK d          -2.803  -2.704   0.309  0.00  0.00     0.161 C 
ATOM      8  C20 UNK d           0.801  -3.111  -0.804  0.00  0.00     0.169 A 
ENDROOT
BRANCH   4   9
ATOM      9  C13 UNK d          -1.567  -0.480   1.539  0.00  0.00     0.086 C 
ATOM     10  C15 UNK d          -2.255  -1.254   2.655  0.00  0.00     0.046 C 
ATOM     11  C16 UNK d          -0.688   0.633   2.093  0.00  0.00     0.046 C 
BRANCH   9  12
ATOM     12  N7  UNK d          -2.526   0.035   0.596  0.00  0.00    -0.338 N 
ATOM     13  C21 UNK d          -3.473   0.990   0.940  0.00  0.00     0.297 C 
ATOM     14  O4  UNK d          -3.594   1.486   2.057  0.00  0.00    -0.264 OA
ATOM     15  H39 UNK d          -2.447  -0.215  -0.388  0.00  0.00     0.164 HD
BRANCH  13  16
ATOM     16  C23 UNK d          -4.407   1.399  -0.141  0.00  0.00     0.261 A 
ATOM     17  O5  UNK d          -5.369   2.330   0.107  0.00  0.00    -0.270 OA
ATOM     18  C28 UNK d          -5.978   2.405  -1.108  0.00  0.00     0.166 A 
ATOM     19  N12 UNK d          -5.452   1.609  -2.009  0.00  0.00    -0.127 NA
ATOM     20  C32 UNK d          -7.103   3.341  -1.227  0.00  0.00     0.102 C 
ATOM     21  N11 UNK d          -4.419   0.947  -1.373  0.00  0.00    -0.116 NA
ENDBRANCH  13  16
ENDBRANCH   9  12
ENDBRANCH   4   9
BRANCH   6  22
ATOM     22  C22 UNK d           2.705  -1.712  -0.295  0.00  0.00     0.273 C 
ATOM     23  O6  UNK d           3.334  -2.023  -1.303  0.00  0.00    -0.266 OA
ATOM     24  N10 UNK d           3.206  -1.062   0.817  0.00  0.00    -0.351 N 
ATOM     25  H43 UNK d           2.582  -0.844   1.589  0.00  0.00     0.163 HD
BRANCH  24  26
ATOM     26  C24 UNK d           4.586  -0.649   0.938  0.00  0.00     0.161 C 
BRANCH  26  27
ATOM     27  C25 UNK d           4.806   0.739   0.409  0.00  0.00    -0.040 A 
ATOM     28  C26 UNK d           5.140   0.929  -0.932  0.00  0.00     0.012 A 
ATOM     29  C29 UNK d           5.345   2.218  -1.423  0.00  0.00     0.043 A 
ATOM     30  C31 UNK d           5.216   3.317  -0.574  0.00  0.00     0.116 A 
ATOM     31  F1  UNK d           5.412   4.555  -1.046  0.00  0.00    -0.206 F 
ATOM     32  C30 UNK d           4.882   3.127   0.767  0.00  0.00     0.043 A 
ATOM     33  C27 UNK d           4.677   1.838   1.258  0.00  0.00     0.012 A 
ENDBRANCH  26  27
ENDBRANCH  24  26
ENDBRANCH   6  22
BRANCH   8  34
ATOM     34  O2  UNK d           1.581  -3.955  -1.561  0.00  0.00    -0.354 OA
ATOM     35  H46 UNK d           1.003  -4.658  -1.905  0.00  0.00     0.218 HD
ENDBRANCH   8  34
TORSDOF 7
