REMARK  13 active torsions:
REMARK  status: ('A' for Active; 'I' for Inactive)
REMARK    1  A    between atoms: S1_1  and  N10_10 
REMARK    2  A    between atoms: S1_1  and  C37_37 
REMARK    3  A    between atoms: O6_6  and  C16_16 
REMARK    4  A    between atoms: N10_10  and  C31_31 
REMARK    5  A    between atoms: C12_12  and  C14_14 
REMARK    6  A    between atoms: C12_12  and  C15_15 
REMARK    7  A    between atoms: C14_14  and  C18_18 
REMARK    8  A    between atoms: C15_15  and  C20_20 
REMARK    9  A    between atoms: C17_17  and  C19_19 
REMARK   10  A    between atoms: C18_18  and  C24_24 
REMARK   11  A    between atoms: C19_19  and  C22_22 
REMARK   12  A    between atoms: C19_19  and  C23_23 
REMARK   13  A    between atoms: C40_40  and  C42_42 
ROOT
ATOM      1  C19 UNK d          -1.235   3.142   0.779  0.00  0.00     0.060 C 
ENDROOT
BRANCH   1   2
ATOM      2  C17 UNK d          -2.116   2.159   0.066  0.00  0.00     0.055 C 
ATOM      3  C16 UNK d          -1.728   1.419  -0.984  0.00  0.00     0.059 C 
ATOM      4  C13 UNK d          -2.646   0.446  -1.654  0.00  0.00     0.103 C 
ATOM      5  C12 UNK d          -3.687  -0.071  -0.659  0.00  0.00     0.077 C 
ATOM      6  O5  UNK d          -4.278   1.047   0.047  0.00  0.00    -0.306 OA
ATOM      7  C21 UNK d          -3.521   2.062   0.543  0.00  0.00     0.293 C 
ATOM      8  O7  UNK d          -3.983   2.875   1.337  0.00  0.00    -0.259 OA
BRANCH   3   9
ATOM      9  O6  UNK d          -0.449   1.506  -1.497  0.00  0.00    -0.364 OA
ATOM     10  H59 UNK d          -0.391   0.916  -2.267  0.00  0.00     0.217 HD
ENDBRANCH   3   9
BRANCH   5  11
ATOM     11  C14 UNK d          -3.097  -1.049   0.367  0.00  0.00     0.043 C 
BRANCH  11  12
ATOM     12  C18 UNK d          -2.458  -2.249  -0.325  0.00  0.00     0.041 C 
BRANCH  12  13
ATOM     13  C24 UNK d          -1.864  -3.206   0.677  0.00  0.00    -0.058 A 
ATOM     14  C29 UNK d          -0.539  -3.057   1.084  0.00  0.00     0.007 A 
ATOM     15  C34 UNK d           0.010  -3.943   2.010  0.00  0.00     0.001 A 
ATOM     16  C36 UNK d          -0.766  -4.979   2.530  0.00  0.00     0.000 A 
ATOM     17  C35 UNK d          -2.092  -5.128   2.123  0.00  0.00     0.001 A 
ATOM     18  C30 UNK d          -2.641  -4.242   1.196  0.00  0.00     0.007 A 
ENDBRANCH  12  13
ENDBRANCH  11  12
ENDBRANCH   5  11
BRANCH   5  19
ATOM     19  C15 UNK d          -4.827  -0.765  -1.413  0.00  0.00     0.038 C 
BRANCH  19  20
ATOM     20  C20 UNK d          -5.824   0.253  -1.946  0.00  0.00    -0.002 C 
ATOM     21  C25 UNK d          -6.943  -0.433  -2.714  0.00  0.00     0.005 C 
ENDBRANCH  19  20
ENDBRANCH   5  19
ENDBRANCH   1   2
BRANCH   1  22
ATOM     22  C22 UNK d          -0.842   4.303  -0.160  0.00  0.00     0.010 C 
ATOM     23  C26 UNK d          -2.044   5.009  -0.776  0.00  0.00     0.006 C 
ENDBRANCH   1  22
BRANCH   1  24
ATOM     24  C23 UNK d          -0.039   2.445   1.406  0.00  0.00    -0.047 A 
ATOM     25  C27 UNK d           1.255   2.854   1.082  0.00  0.00     0.038 A 
ATOM     26  C31 UNK d           2.353   2.214   1.657  0.00  0.00     0.043 A 
ATOM     27  C33 UNK d           2.157   1.166   2.557  0.00  0.00     0.030 A 
ATOM     28  C32 UNK d           0.863   0.757   2.881  0.00  0.00     0.003 A 
ATOM     29  C28 UNK d          -0.235   1.397   2.306  0.00  0.00     0.008 A 
BRANCH  26  30
ATOM     30  N10 UNK d           3.678   2.630   1.324  0.00  0.00    -0.279 N 
ATOM     31  H72 UNK d           4.393   2.401   2.027  0.00  0.00     0.179 HD
BRANCH  30  32
ATOM     32  S1  UNK d           4.185   2.547  -0.320  0.00  0.00     0.280 S 
ATOM     33  O8  UNK d           5.628   2.688  -0.377  0.00  0.00    -0.199 OA
ATOM     34  O9  UNK d           3.345   3.395  -1.143  0.00  0.00    -0.199 OA
BRANCH  32  35
ATOM     35  C37 UNK d           3.818   0.864  -0.729  0.00  0.00     0.171 A 
ATOM     36  N11 UNK d           4.631  -0.021  -0.109  0.00  0.00    -0.247 NA
ATOM     37  C41 UNK d           4.408  -1.328  -0.373  0.00  0.00     0.134 A 
ATOM     38  C40 UNK d           3.416  -1.789  -1.223  0.00  0.00     0.065 A 
ATOM     39  C39 UNK d           2.600  -0.849  -1.842  0.00  0.00     0.021 A 
ATOM     40  C38 UNK d           2.798   0.505  -1.595  0.00  0.00     0.046 A 
BRANCH  38  41
ATOM     41  C42 UNK d           3.230  -3.245  -1.466  0.00  0.00     0.418 C 
ATOM     42  F2  UNK d           2.206  -3.510  -2.330  0.00  0.00    -0.166 F 
ATOM     43  F3  UNK d           4.327  -3.859  -2.004  0.00  0.00    -0.166 F 
ATOM     44  F4  UNK d           2.945  -3.960  -0.336  0.00  0.00    -0.166 F 
ENDBRANCH  38  41
ENDBRANCH  32  35
ENDBRANCH  30  32
ENDBRANCH  26  30
ENDBRANCH   1  24
TORSDOF 13
