5wkl_ligand

Created by X-TOOL on Sun Dec 29 22:10:38 2019
 63 64  0  0  0  0  0  0  0  0999 V2000
  -20.9830   -1.2810    5.4980  C 0  0  0  2  0  4
  -20.2840   -2.1190    6.5830  C 0  0  0  3  0  4
  -20.7610   -3.5850    6.6290  C 0  0  0  2  0  4
  -20.1410   -4.3300    7.7460  C 0  0  0  1  0  3
  -22.1440   -7.8110    4.0620  C 0  0  0  3  0  4
  -23.3110   -7.2590    4.8830  C 0  0  0  1  0  3
  -22.4910   -4.7560    7.9300  C 0  0  0  3  0  4
  -21.5500   -5.2250    2.4920  C 0  0  0  1  0  3
  -20.9250   -2.8620    1.9730  C 0  0  0  2  0  4
  -21.1330   -1.8380    0.8590  C 0  0  0  3  0  4
  -20.5010   -2.3070   -0.4550  C 0  0  0  2  0  4
  -20.8340   -1.3920   -1.6380  C 0  0  0  4  0  4
  -18.9810   -2.4580   -0.3520  C 0  0  0  4  0  4
  -21.4990   -2.3600    3.2940  C 0  0  0  1  0  3
  -22.2600   -3.6270    6.8860  C 0  0  0  3  0  4
  -20.6020    0.2000    5.4940  C 0  0  0  3  0  4
  -22.2800   -7.5200    2.4890  C 0  0  0  3  0  4
  -23.8010   -5.9710    4.7110  C 0  0  0  2  0  3
  -24.8460   -5.5140    5.4970  C 0  0  0  2  0  3
  -25.4030   -6.3430    6.4550  C 0  0  0  2  0  3
  -24.9110   -7.6220    6.6290  C 0  0  0  2  0  3
  -23.8620   -8.0770    5.8540  C 0  0  0  2  0  3
  -21.6000   -4.0850    1.6170  N 0  0  0  2  0  3
  -20.5510   -1.7890    4.2200  N 0  0  0  2  0  3
  -21.2090   -5.0400    8.5220  N 0  0  0  2  0  3
  -20.7290   -5.3120    3.3600  O 0  0  0  1  0  1
  -18.9920   -4.4130    8.0080  O 0  0  0  1  0  1
  -21.2430    0.8210    4.4100  O 0  0  0  2  0  2
  -22.6510   -2.4420    3.5680  O 0  0  0  1  0  1
  -22.5650   -6.1670    2.2720  O 0  0  0  1  0  2
  -22.0725   -1.3793    5.6132  H 0  0  0  1  0  1
  -20.4823   -1.6573    7.5615  H 0  0  0  1  0  1
  -19.2018   -2.1108    6.3862  H 0  0  0  1  0  1
  -20.5218   -4.0736    5.6730  H 0  0  0  1  0  1
  -22.0952   -8.8995    4.2126  H 0  0  0  1  0  1
  -21.2135   -7.3488    4.4233  H 0  0  0  1  0  1
  -22.8876   -5.6548    7.4352  H 0  0  0  1  0  1
  -23.1989   -4.4198    8.7018  H 0  0  0  1  0  1
  -19.8484   -3.0530    2.0931  H 0  0  0  1  0  1
  -20.6720   -0.8851    1.1579  H 0  0  0  1  0  1
  -22.2121   -1.6909    0.7048  H 0  0  0  1  0  1
  -20.9206   -3.2997   -0.6750  H 0  0  0  1  0  1
  -20.3536   -1.7801   -2.5483  H 0  0  0  1  0  1
  -20.4635   -0.3770   -1.4321  H 0  0  0  1  0  1
  -21.9240   -1.3621   -1.7830  H 0  0  0  1  0  1
  -18.7343   -3.1141    0.4958  H 0  0  0  1  0  1
  -18.5241   -1.4697   -0.1958  H 0  0  0  1  0  1
  -18.5924   -2.8988   -1.2819  H 0  0  0  1  0  1
  -22.8002   -3.8528    5.9548  H 0  0  0  1  0  1
  -22.6054   -2.6621    7.2855  H 0  0  0  1  0  1
  -19.5119    0.3026    5.3890  H 0  0  0  1  0  1
  -20.9255    0.6691    6.4349  H 0  0  0  1  0  1
  -23.0933   -8.1339    2.0746  H 0  0  0  1  0  1
  -21.3348   -7.7773    1.9885  H 0  0  0  1  0  1
  -23.3648   -5.3220    3.9602  H 0  0  0  1  0  1
  -25.2271   -4.5082    5.3619  H 0  0  0  1  0  1
  -26.2241   -5.9892    7.0679  H 0  0  0  1  0  1
  -25.3502   -8.2717    7.3773  H 0  0  0  1  0  1
  -23.4698   -9.0760    6.0065  H 0  0  0  1  0  1
  -22.1061   -4.1409    0.7563  H 0  0  0  1  0  1
  -19.5832   -1.7452    3.9723  H 0  0  0  1  0  1
  -21.0558   -5.6186    9.3231  H 0  0  0  1  0  1
  -20.9623    0.4109    3.6003  H 0  0  0  1  0  1
  1  2  1  0  0  2
  1 16  1  0  0  2
 24  1  1  0  0  2
  2  3  1  0  0  2
  3  4  1  0  0  1
  3 15  1  0  0  1
  4 25  1  0  0  1
  4 27  2  0  0  2
  5  6  1  0  0  2
 17  5  1  0  0  2
  6 18  4  0  0  1
  6 22  4  0  0  1
 15  7  1  0  0  1
  7 25  1  0  0  1
  8 23  1  0  0  2
  8 26  2  0  0  2
 30  8  1  0  0  2
  9 10  1  0  0  2
  9 14  1  0  0  2
 23  9  1  0  0  2
 10 11  1  0  0  2
 11 12  1  0  0  2
 11 13  1  0  0  2
 14 24  1  0  0  2
 14 29  2  0  0  2
 16 28  1  0  0  2
 17 30  1  0  0  2
 18 19  4  0  0  1
 19 20  4  0  0  1
 20 21  4  0  0  1
 21 22  4  0  0  1
  1 31  1  0  0  2
  2 32  1  0  0  2
  2 33  1  0  0  2
  3 34  1  0  0  2
  5 35  1  0  0  2
  5 36  1  0  0  2
  7 37  1  0  0  2
  7 38  1  0  0  2
  9 39  1  0  0  2
 10 40  1  0  0  2
 10 41  1  0  0  2
 11 42  1  0  0  2
 12 43  1  0  0  2
 12 44  1  0  0  2
 12 45  1  0  0  2
 13 46  1  0  0  2
 13 47  1  0  0  2
 13 48  1  0  0  2
 15 49  1  0  0  2
 15 50  1  0  0  2
 16 51  1  0  0  2
 16 52  1  0  0  2
 17 53  1  0  0  2
 17 54  1  0  0  2
 18 55  1  0  0  2
 19 56  1  0  0  2
 20 57  1  0  0  2
 21 58  1  0  0  2
 22 59  1  0  0  2
 23 60  1  0  0  2
 24 61  1  0  0  2
 25 62  1  0  0  2
 28 63  1  0  0  2
M  END
> <MOLECULAR_FORMULA>
C22H33N3O5

> <MOLECULAR_WEIGHT>
419.2

> <NUM_HB_ATOMS>
8  

> <NUM_ROTOR>
12 

> <XLOGP2>
1.80 

$$$$
