REMARK  9 active torsions:
REMARK  status: ('A' for Active; 'I' for Inactive)
REMARK    1  A    between atoms: C1'_1270  and  N9_1269 
REMARK    2  A    between atoms: C4'_1276  and  C5'_1277 
REMARK    3  A    between atoms: C5'_1277  and  O5'_1278 
REMARK    4  A    between atoms: O5'_1278  and  PA_1279 
REMARK    5  A    between atoms: O3A_1282  and  PA_1279 
REMARK    6  A    between atoms: O3A_1282  and  PB_1283 
REMARK    7  A    between atoms: O5D_1286  and  PB_1283 
REMARK    8  A    between atoms: C5D_1287  and  O5D_1286 
REMARK    9  A    between atoms: C4D_1295  and  C5D_1287 
ROOT
HETATM    1  C5' APR A 201      -3.965   4.900  18.111  1.00 19.12     0.187 C 
ENDROOT
BRANCH   1   2
HETATM    2  C4' APR A 201      -4.532   3.670  17.527  1.00 19.09     0.181 C 
HETATM    3  C3' APR A 201      -6.052   3.401  17.735  1.00 20.25     0.216 C 
HETATM    4  C2' APR A 201      -6.193   2.550  18.949  1.00 22.32     0.234 C 
HETATM    5  O3' APR A 201      -6.563   2.732  16.504  1.00 22.53    -0.218 OA
HETATM    6  C1' APR A 201      -5.008   1.602  18.688  1.00 19.65     0.241 C 
HETATM    7  O2' APR A 201      -7.491   1.823  19.071  1.00 25.46    -0.216 OA
HETATM    8  O4' APR A 201      -3.963   2.482  18.200  1.00 19.94    -0.331 OA
BRANCH   6   9
HETATM    9  N9  APR A 201      -4.453   0.969  19.916  1.00 20.81    -0.270 N 
HETATM   10  C4  APR A 201      -3.500  -0.001  19.786  1.00 19.27     0.170 A 
HETATM   11  C5  APR A 201      -3.146  -0.329  21.181  1.00 18.61     0.155 A 
HETATM   12  N3  APR A 201      -2.989  -0.695  18.764  1.00 21.86    -0.205 NA
HETATM   13  C6  APR A 201      -2.161  -1.384  21.402  1.00 20.20     0.206 C 
HETATM   14  N7  APR A 201      -3.859   0.510  22.039  1.00 19.19    -0.219 NA
HETATM   15  N6  APR A 201      -1.825  -1.675  22.699  1.00 21.16    -0.125 N 
HETATM   16  N1  APR A 201      -1.715  -2.023  20.337  1.00 19.49    -0.202 NA
HETATM   17  C2  APR A 201      -2.049  -1.595  19.063  1.00 21.87     0.202 C 
HETATM   18  C8  APR A 201      -4.593   1.329  21.235  1.00 21.40     0.182 A 
ENDBRANCH   6   9
ENDBRANCH   1   2
BRANCH   1  19
HETATM   19  O5' APR A 201      -4.911   5.222  19.160  1.00 24.50    -0.268 OA
BRANCH  19  20
HETATM   20  PA  APR A 201      -4.565   6.151  20.451  1.00 21.05     0.418 P 
HETATM   21  O1A APR A 201      -3.701   5.447  21.413  1.00 21.46    -0.624 OA
HETATM   22  O2A APR A 201      -5.929   6.656  20.989  1.00 25.11    -0.624 OA
BRANCH  20  23
HETATM   23  O3A APR A 201      -3.687   7.278  19.747  1.00 20.41    -0.180 OA
BRANCH  23  24
HETATM   24  PB  APR A 201      -4.041   8.724  19.063  1.00 20.48     0.418 P 
HETATM   25  O1B APR A 201      -5.391   8.684  18.364  1.00 19.19    -0.624 OA
HETATM   26  O2B APR A 201      -2.737   9.207  18.373  1.00 19.05    -0.624 OA
BRANCH  24  27
HETATM   27  O5D APR A 201      -4.343   9.606  20.428  1.00 22.88    -0.268 OA
BRANCH  27  28
HETATM   28  C5D APR A 201      -3.235  10.006  21.272  1.00 21.96     0.187 C 
BRANCH  28  29
HETATM   29  C4D APR A 201      -3.885  10.653  22.510  1.00 22.37     0.181 C 
HETATM   30  C3D APR A 201      -2.866  11.298  23.379  1.00 25.01     0.217 C 
HETATM   31  C2D APR A 201      -2.438  10.182  24.259  1.00 25.37     0.244 C 
HETATM   32  O3D APR A 201      -3.558  12.324  24.174  1.00 24.85    -0.218 OA
HETATM   33  C1D APR A 201      -3.778   9.425  24.479  1.00 27.95     0.303 C 
HETATM   34  O2D APR A 201      -1.994  10.531  25.605  1.00 30.50    -0.215 OA
HETATM   35  O4D APR A 201      -4.491   9.573  23.189  1.00 27.08    -0.324 OA
HETATM   36  O1D APR A 201      -3.451   8.060  24.775  1.00 32.87    -0.187 OA
ENDBRANCH  28  29
ENDBRANCH  27  28
ENDBRANCH  24  27
ENDBRANCH  23  24
ENDBRANCH  20  23
ENDBRANCH  19  20
ENDBRANCH   1  19
TORSDOF 9
